(PID.TID 0000.0001) W2_E2SETUP: number of Active Tiles =       6
(PID.TID 0000.0001) W2_E2SETUP: number of Blank Tiles  =       0
(PID.TID 0000.0001) W2_E2SETUP: Total number of Tiles  =       6
(PID.TID 0000.0001) W2_SET_CS6_FACETS: preDefTopol=  3 selected
(PID.TID 0000.0001) W2_SET_CS6_FACETS: facet-dims Unset; assume nRd=nGr=nBl=   32
(PID.TID 0000.0001)  facet  2.W set dim   4 = dim   2 from  1.E :      32
(PID.TID 0000.0001)  facet  3.S set dim   5 = dim   3 from  2.N :      32
(PID.TID 0000.0001)  facet  3.W set dim   6 = dim   1 from  1.N :      32
(PID.TID 0000.0001)  facet  4.S set dim   7 = dim   4 from  2.E :      32
(PID.TID 0000.0001)  facet  4.W set dim   8 = dim   6 from  3.E :      32
(PID.TID 0000.0001)  facet  5.N set dim   9 = dim   2 from  1.W :      32
(PID.TID 0000.0001)  facet  5.W set dim  10 = dim   5 from  3.N :      32
(PID.TID 0000.0001)  facet  6.N set dim  11 = dim   1 from  1.S :      32
(PID.TID 0000.0001)  facet  6.E set dim  12 = dim   3 from  2.S :      32
(PID.TID 0000.0001) W2_E2SETUP: Total number of Facets =       6
(PID.TID 0000.0001) W2_SET_F2F_INDEX: index matrix for connected Facet-Edges:
  N.Edge Facet  1 <-- W.Edge Facet  3 : pij=  0 -1  1  0 ; oi,oj=    33    32
  S.Edge Facet  1 <-- N.Edge Facet  6 : pij=  1  0  0  1 ; oi,oj=     0   -32
  E.Edge Facet  1 <-- W.Edge Facet  2 : pij=  1  0  0  1 ; oi,oj=    32     0
  W.Edge Facet  1 <-- N.Edge Facet  5 : pij=  0  1 -1  0 ; oi,oj=   -32    33
  N.Edge Facet  2 <-- S.Edge Facet  3 : pij=  1  0  0  1 ; oi,oj=     0    32
  S.Edge Facet  2 <-- E.Edge Facet  6 : pij=  0 -1  1  0 ; oi,oj=    33   -32
  E.Edge Facet  2 <-- S.Edge Facet  4 : pij=  0  1 -1  0 ; oi,oj=    32    33
  W.Edge Facet  2 <-- E.Edge Facet  1 : pij=  1  0  0  1 ; oi,oj=   -32     0
  N.Edge Facet  3 <-- W.Edge Facet  5 : pij=  0 -1  1  0 ; oi,oj=    33    32
  S.Edge Facet  3 <-- N.Edge Facet  2 : pij=  1  0  0  1 ; oi,oj=     0   -32
  E.Edge Facet  3 <-- W.Edge Facet  4 : pij=  1  0  0  1 ; oi,oj=    32     0
  W.Edge Facet  3 <-- N.Edge Facet  1 : pij=  0  1 -1  0 ; oi,oj=   -32    33
  N.Edge Facet  4 <-- S.Edge Facet  5 : pij=  1  0  0  1 ; oi,oj=     0    32
  S.Edge Facet  4 <-- E.Edge Facet  2 : pij=  0 -1  1  0 ; oi,oj=    33   -32
  E.Edge Facet  4 <-- S.Edge Facet  6 : pij=  0  1 -1  0 ; oi,oj=    32    33
  W.Edge Facet  4 <-- E.Edge Facet  3 : pij=  1  0  0  1 ; oi,oj=   -32     0
  N.Edge Facet  5 <-- W.Edge Facet  1 : pij=  0 -1  1  0 ; oi,oj=    33    32
  S.Edge Facet  5 <-- N.Edge Facet  4 : pij=  1  0  0  1 ; oi,oj=     0   -32
  E.Edge Facet  5 <-- W.Edge Facet  6 : pij=  1  0  0  1 ; oi,oj=    32     0
  W.Edge Facet  5 <-- N.Edge Facet  3 : pij=  0  1 -1  0 ; oi,oj=   -32    33
  N.Edge Facet  6 <-- S.Edge Facet  1 : pij=  1  0  0  1 ; oi,oj=     0    32
  S.Edge Facet  6 <-- E.Edge Facet  4 : pij=  0 -1  1  0 ; oi,oj=    33   -32
  E.Edge Facet  6 <-- S.Edge Facet  2 : pij=  0  1 -1  0 ; oi,oj=    32    33
  W.Edge Facet  6 <-- E.Edge Facet  5 : pij=  1  0  0  1 ; oi,oj=   -32     0
(PID.TID 0000.0001) W2_SET_MAP_TILES: tile mapping within facet and global Map:
(PID.TID 0000.0001)  Global Map (IO): X-size=     192 , Y-size=      32
(PID.TID 0000.0001) W2_SET_MAP_TILES: tile offset within facet and global Map:
- facet  1 : X-size=    32 , Y-size=    32 ;       1 tiles (Tx,Ty=   1,   1)
  tile       1 on facet  1 (  1,  1): offset=    0    0 ; on Glob.Map=       1       1
- facet  2 : X-size=    32 , Y-size=    32 ;       1 tiles (Tx,Ty=   1,   1)
  tile       2 on facet  2 (  1,  1): offset=    0    0 ; on Glob.Map=      33       1
- facet  3 : X-size=    32 , Y-size=    32 ;       1 tiles (Tx,Ty=   1,   1)
  tile       3 on facet  3 (  1,  1): offset=    0    0 ; on Glob.Map=      65       1
- facet  4 : X-size=    32 , Y-size=    32 ;       1 tiles (Tx,Ty=   1,   1)
  tile       4 on facet  4 (  1,  1): offset=    0    0 ; on Glob.Map=      97       1
- facet  5 : X-size=    32 , Y-size=    32 ;       1 tiles (Tx,Ty=   1,   1)
  tile       5 on facet  5 (  1,  1): offset=    0    0 ; on Glob.Map=     129       1
- facet  6 : X-size=    32 , Y-size=    32 ;       1 tiles (Tx,Ty=   1,   1)
  tile       6 on facet  6 (  1,  1): offset=    0    0 ; on Glob.Map=     161       1
(PID.TID 0000.0001) W2_SET_MAP_CUMSUM: setting Facet Matrix for CUMUL-SUM
(PID.TID 0000.0001) W2_SET_MAP_CUMSUM: set    5 /   6 active facets (pass,type=   1, 1)
 Facet Matrix for CUMUL-SUM (nFacets=   6, nActive=   6 ):
- facet  1 :  0  0 ,  0  0 ,  0  0 ,  0  0 ,  0  0 ,  0  0 ,
- facet  2 :  1  0 ,  0  0 ,  0  0 ,  0  0 ,  0  0 ,  0  0 ,
- facet  3 :  1  0 ,  0  1 ,  0  0 ,  0  0 ,  0  0 ,  0  0 ,
- facet  4 :  1  0 ,  0  1 ,  1  0 ,  0  0 ,  0  0 ,  0  0 ,
- facet  5 :  1  0 ,  0  1 ,  1  0 ,  0  1 ,  0  0 ,  0  0 ,
- facet  6 :  1  0 ,  0  1 ,  1  0 ,  0  1 ,  1  0 ,  0  0 ,
 missing-corner Tile for CUMUL-SUM (nTiles=       6 ): W2_tMC1=       1 , W2_tMC2=       2
(PID.TID 0000.0001) W2_SET_MAP_CUMSUM: done (skip Tile Matrix setting)
(PID.TID 0000.0001) W2_SET_TILE2TILES: tile neighbours and index connection:
Tile       1 : nbNeighb=  4 ; is-at-Facet-Edge: N= 1 , S= 1 , E= 1 , W= 1
 ns:  1 it=       3, iLo,iHi=     0    33, jLo,jHi=    33    33
 ns:  2 it=       6, iLo,iHi=     0    33, jLo,jHi=     0     0
 ns:  3 it=       2, iLo,iHi=    33    33, jLo,jHi=     0    33
 ns:  4 it=       5, iLo,iHi=     0     0, jLo,jHi=     0    33
Tile       2 : nbNeighb=  4 ; is-at-Facet-Edge: N= 1 , S= 1 , E= 1 , W= 1
 ns:  1 it=       3, iLo,iHi=     0    33, jLo,jHi=    33    33
 ns:  2 it=       6, iLo,iHi=     0    33, jLo,jHi=     0     0
 ns:  3 it=       4, iLo,iHi=    33    33, jLo,jHi=     0    33
 ns:  4 it=       1, iLo,iHi=     0     0, jLo,jHi=     0    33
Tile       3 : nbNeighb=  4 ; is-at-Facet-Edge: N= 1 , S= 1 , E= 1 , W= 1
 ns:  1 it=       5, iLo,iHi=     0    33, jLo,jHi=    33    33
 ns:  2 it=       2, iLo,iHi=     0    33, jLo,jHi=     0     0
 ns:  3 it=       4, iLo,iHi=    33    33, jLo,jHi=     0    33
 ns:  4 it=       1, iLo,iHi=     0     0, jLo,jHi=     0    33
Tile       4 : nbNeighb=  4 ; is-at-Facet-Edge: N= 1 , S= 1 , E= 1 , W= 1
 ns:  1 it=       5, iLo,iHi=     0    33, jLo,jHi=    33    33
 ns:  2 it=       2, iLo,iHi=     0    33, jLo,jHi=     0     0
 ns:  3 it=       6, iLo,iHi=    33    33, jLo,jHi=     0    33
 ns:  4 it=       3, iLo,iHi=     0     0, jLo,jHi=     0    33
Tile       5 : nbNeighb=  4 ; is-at-Facet-Edge: N= 1 , S= 1 , E= 1 , W= 1
 ns:  1 it=       1, iLo,iHi=     0    33, jLo,jHi=    33    33
 ns:  2 it=       4, iLo,iHi=     0    33, jLo,jHi=     0     0
 ns:  3 it=       6, iLo,iHi=    33    33, jLo,jHi=     0    33
 ns:  4 it=       3, iLo,iHi=     0     0, jLo,jHi=     0    33
Tile       6 : nbNeighb=  4 ; is-at-Facet-Edge: N= 1 , S= 1 , E= 1 , W= 1
 ns:  1 it=       1, iLo,iHi=     0    33, jLo,jHi=    33    33
 ns:  2 it=       4, iLo,iHi=     0    33, jLo,jHi=     0     0
 ns:  3 it=       2, iLo,iHi=    33    33, jLo,jHi=     0    33
 ns:  4 it=       5, iLo,iHi=     0     0, jLo,jHi=     0    33
(PID.TID 0000.0001) current Max.Nb.Neighbours (e.g., on tile    1 ) =  4
(PID.TID 0000.0001) ===== W2 TILE TOPOLOGY =====
(PID.TID 0000.0001)  TILE:     1 (bi,bj=   1   1 ), Nb of Neighbours =  4
(PID.TID 0000.0001)     NEIGHBOUR  1 = TILE       3 (n=  4) Comm = MSG (PROC=       2)
(PID.TID 0000.0001)     NEIGHBOUR  2 = TILE       6 (n=  1) Comm = MSG (PROC=       6)
(PID.TID 0000.0001)     NEIGHBOUR  3 = TILE       2 (n=  4) Comm = MSG (PROC=       4)
(PID.TID 0000.0001)     NEIGHBOUR  4 = TILE       5 (n=  1) Comm = MSG (PROC=       3)
Tile       1 (pr=       1) sends pts i=  36:  -3, j=  29:  32
                              to pts i=  -3:   0, j=  -3:  36 in tile        3 (pr=       2)
Tile       1 (pr=       1) sends pts i=  -3:  36, j=   1:   4
                              to pts i=  -3:  36, j=  33:  36 in tile        6 (pr=       6)
Tile       1 (pr=       1) sends pts i=  29:  32, j=  -3:  36
                              to pts i=  -3:   0, j=  -3:  36 in tile        2 (pr=       4)
Tile       1 (pr=       1) sends pts i=   1:   4, j=  36:  -3
                              to pts i=  -3:  36, j=  33:  36 in tile        5 (pr=       3)
Tile       1 (pr=       1) recv pts i=  -3:  36, j=  33:  36 from tile       3 (pr=       2)
Tile       1 (pr=       1) recv pts i=  -3:  36, j=  -3:   0 from tile       6 (pr=       6)
Tile       1 (pr=       1) recv pts i=  33:  36, j=  -3:  36 from tile       2 (pr=       4)
Tile       1 (pr=       1) recv pts i=  -3:   0, j=  -3:  36 from tile       5 (pr=       3)
(PID.TID 0000.0001) ===  End TOPOLOGY report ===
