(PID.TID 0006.0001) ** WARNINGS ** INI_SALT: found    125004 wet grid-pts with salt=0 identically.
