(PID.TID 0018.0001) ** WARNINGS ** INI_SALT: found     21600 wet grid-pts with salt=0 identically.
