(PID.TID 0033.0001) ** WARNINGS ** INI_SALT: found     17004 wet grid-pts with salt=0 identically.
