(PID.TID 0002.0001) ** WARNINGS ** INI_SALT: found     21600 wet grid-pts with salt=0 identically.
