(PID.TID 0000.0001) W2_E2SETUP: number of Active Tiles =      48
(PID.TID 0000.0001) W2_E2SETUP: number of Blank Tiles  =       0
(PID.TID 0000.0001) W2_E2SETUP: Total number of Tiles  =      48
(PID.TID 0000.0001) W2_SET_CS6_FACETS: preDefTopol=  3 selected
(PID.TID 0000.0001) W2_SET_CS6_FACETS: facet-dims Unset; assume nRd=nGr=nBl=   32
(PID.TID 0000.0001)  facet  2.W set dim   4 = dim   2 from  1.E :      32
(PID.TID 0000.0001)  facet  3.S set dim   5 = dim   3 from  2.N :      32
(PID.TID 0000.0001)  facet  3.W set dim   6 = dim   1 from  1.N :      32
(PID.TID 0000.0001)  facet  4.S set dim   7 = dim   4 from  2.E :      32
(PID.TID 0000.0001)  facet  4.W set dim   8 = dim   6 from  3.E :      32
(PID.TID 0000.0001)  facet  5.N set dim   9 = dim   2 from  1.W :      32
(PID.TID 0000.0001)  facet  5.W set dim  10 = dim   5 from  3.N :      32
(PID.TID 0000.0001)  facet  6.N set dim  11 = dim   1 from  1.S :      32
(PID.TID 0000.0001)  facet  6.E set dim  12 = dim   3 from  2.S :      32
(PID.TID 0000.0001) W2_E2SETUP: Total number of Facets =       6
(PID.TID 0000.0001) W2_SET_F2F_INDEX: index matrix for connected Facet-Edges:
  N.Edge Facet  1 <-- W.Edge Facet  3 : pij=  0 -1  1  0 ; oi,oj=    33    32
  S.Edge Facet  1 <-- N.Edge Facet  6 : pij=  1  0  0  1 ; oi,oj=     0   -32
  E.Edge Facet  1 <-- W.Edge Facet  2 : pij=  1  0  0  1 ; oi,oj=    32     0
  W.Edge Facet  1 <-- N.Edge Facet  5 : pij=  0  1 -1  0 ; oi,oj=   -32    33
  N.Edge Facet  2 <-- S.Edge Facet  3 : pij=  1  0  0  1 ; oi,oj=     0    32
  S.Edge Facet  2 <-- E.Edge Facet  6 : pij=  0 -1  1  0 ; oi,oj=    33   -32
  E.Edge Facet  2 <-- S.Edge Facet  4 : pij=  0  1 -1  0 ; oi,oj=    32    33
  W.Edge Facet  2 <-- E.Edge Facet  1 : pij=  1  0  0  1 ; oi,oj=   -32     0
  N.Edge Facet  3 <-- W.Edge Facet  5 : pij=  0 -1  1  0 ; oi,oj=    33    32
  S.Edge Facet  3 <-- N.Edge Facet  2 : pij=  1  0  0  1 ; oi,oj=     0   -32
  E.Edge Facet  3 <-- W.Edge Facet  4 : pij=  1  0  0  1 ; oi,oj=    32     0
  W.Edge Facet  3 <-- N.Edge Facet  1 : pij=  0  1 -1  0 ; oi,oj=   -32    33
  N.Edge Facet  4 <-- S.Edge Facet  5 : pij=  1  0  0  1 ; oi,oj=     0    32
  S.Edge Facet  4 <-- E.Edge Facet  2 : pij=  0 -1  1  0 ; oi,oj=    33   -32
  E.Edge Facet  4 <-- S.Edge Facet  6 : pij=  0  1 -1  0 ; oi,oj=    32    33
  W.Edge Facet  4 <-- E.Edge Facet  3 : pij=  1  0  0  1 ; oi,oj=   -32     0
  N.Edge Facet  5 <-- W.Edge Facet  1 : pij=  0 -1  1  0 ; oi,oj=    33    32
  S.Edge Facet  5 <-- N.Edge Facet  4 : pij=  1  0  0  1 ; oi,oj=     0   -32
  E.Edge Facet  5 <-- W.Edge Facet  6 : pij=  1  0  0  1 ; oi,oj=    32     0
  W.Edge Facet  5 <-- N.Edge Facet  3 : pij=  0  1 -1  0 ; oi,oj=   -32    33
  N.Edge Facet  6 <-- S.Edge Facet  1 : pij=  1  0  0  1 ; oi,oj=     0    32
  S.Edge Facet  6 <-- E.Edge Facet  4 : pij=  0 -1  1  0 ; oi,oj=    33   -32
  E.Edge Facet  6 <-- S.Edge Facet  2 : pij=  0  1 -1  0 ; oi,oj=    32    33
  W.Edge Facet  6 <-- E.Edge Facet  5 : pij=  1  0  0  1 ; oi,oj=   -32     0
(PID.TID 0000.0001) W2_SET_MAP_TILES: tile mapping within facet and global Map:
(PID.TID 0000.0001)  W2_mapIO =   32 (=    2*sNx)
(PID.TID 0000.0001)  Global Map (IO): X-size=      32 , Y-size=     192
(PID.TID 0000.0001) W2_SET_MAP_TILES: tile offset within facet and global Map:
- facet  1 : X-size=    32 , Y-size=    32 ;       8 tiles (Tx,Ty=   2,   4)
  tile       1 on facet  1 (  1,  1): offset=    0    0 ; on Glob.Map=       1       1
  tile       2 on facet  1 (  2,  1): offset=   16    0 ; on Glob.Map=      17       1
  tile       3 on facet  1 (  1,  2): offset=    0    8 ; on Glob.Map=       1       9
  tile       4 on facet  1 (  2,  2): offset=   16    8 ; on Glob.Map=      17       9
  tile       5 on facet  1 (  1,  3): offset=    0   16 ; on Glob.Map=       1      17
  tile       6 on facet  1 (  2,  3): offset=   16   16 ; on Glob.Map=      17      17
  tile       7 on facet  1 (  1,  4): offset=    0   24 ; on Glob.Map=       1      25
  tile       8 on facet  1 (  2,  4): offset=   16   24 ; on Glob.Map=      17      25
- facet  2 : X-size=    32 , Y-size=    32 ;       8 tiles (Tx,Ty=   2,   4)
  tile       9 on facet  2 (  1,  1): offset=    0    0 ; on Glob.Map=       1      33
  tile      10 on facet  2 (  2,  1): offset=   16    0 ; on Glob.Map=      17      33
  tile      11 on facet  2 (  1,  2): offset=    0    8 ; on Glob.Map=       1      41
  tile      12 on facet  2 (  2,  2): offset=   16    8 ; on Glob.Map=      17      41
  tile      13 on facet  2 (  1,  3): offset=    0   16 ; on Glob.Map=       1      49
  tile      14 on facet  2 (  2,  3): offset=   16   16 ; on Glob.Map=      17      49
  tile      15 on facet  2 (  1,  4): offset=    0   24 ; on Glob.Map=       1      57
  tile      16 on facet  2 (  2,  4): offset=   16   24 ; on Glob.Map=      17      57
- facet  3 : X-size=    32 , Y-size=    32 ;       8 tiles (Tx,Ty=   2,   4)
  tile      17 on facet  3 (  1,  1): offset=    0    0 ; on Glob.Map=       1      65
  tile      18 on facet  3 (  2,  1): offset=   16    0 ; on Glob.Map=      17      65
  tile      19 on facet  3 (  1,  2): offset=    0    8 ; on Glob.Map=       1      73
  tile      20 on facet  3 (  2,  2): offset=   16    8 ; on Glob.Map=      17      73
  tile      21 on facet  3 (  1,  3): offset=    0   16 ; on Glob.Map=       1      81
  tile      22 on facet  3 (  2,  3): offset=   16   16 ; on Glob.Map=      17      81
  tile      23 on facet  3 (  1,  4): offset=    0   24 ; on Glob.Map=       1      89
  tile      24 on facet  3 (  2,  4): offset=   16   24 ; on Glob.Map=      17      89
- facet  4 : X-size=    32 , Y-size=    32 ;       8 tiles (Tx,Ty=   2,   4)
  tile      25 on facet  4 (  1,  1): offset=    0    0 ; on Glob.Map=       1      97
  tile      26 on facet  4 (  2,  1): offset=   16    0 ; on Glob.Map=      17      97
  tile      27 on facet  4 (  1,  2): offset=    0    8 ; on Glob.Map=       1     105
  tile      28 on facet  4 (  2,  2): offset=   16    8 ; on Glob.Map=      17     105
  tile      29 on facet  4 (  1,  3): offset=    0   16 ; on Glob.Map=       1     113
  tile      30 on facet  4 (  2,  3): offset=   16   16 ; on Glob.Map=      17     113
  tile      31 on facet  4 (  1,  4): offset=    0   24 ; on Glob.Map=       1     121
  tile      32 on facet  4 (  2,  4): offset=   16   24 ; on Glob.Map=      17     121
- facet  5 : X-size=    32 , Y-size=    32 ;       8 tiles (Tx,Ty=   2,   4)
  tile      33 on facet  5 (  1,  1): offset=    0    0 ; on Glob.Map=       1     129
  tile      34 on facet  5 (  2,  1): offset=   16    0 ; on Glob.Map=      17     129
  tile      35 on facet  5 (  1,  2): offset=    0    8 ; on Glob.Map=       1     137
  tile      36 on facet  5 (  2,  2): offset=   16    8 ; on Glob.Map=      17     137
  tile      37 on facet  5 (  1,  3): offset=    0   16 ; on Glob.Map=       1     145
  tile      38 on facet  5 (  2,  3): offset=   16   16 ; on Glob.Map=      17     145
  tile      39 on facet  5 (  1,  4): offset=    0   24 ; on Glob.Map=       1     153
  tile      40 on facet  5 (  2,  4): offset=   16   24 ; on Glob.Map=      17     153
- facet  6 : X-size=    32 , Y-size=    32 ;       8 tiles (Tx,Ty=   2,   4)
  tile      41 on facet  6 (  1,  1): offset=    0    0 ; on Glob.Map=       1     161
  tile      42 on facet  6 (  2,  1): offset=   16    0 ; on Glob.Map=      17     161
  tile      43 on facet  6 (  1,  2): offset=    0    8 ; on Glob.Map=       1     169
  tile      44 on facet  6 (  2,  2): offset=   16    8 ; on Glob.Map=      17     169
  tile      45 on facet  6 (  1,  3): offset=    0   16 ; on Glob.Map=       1     177
  tile      46 on facet  6 (  2,  3): offset=   16   16 ; on Glob.Map=      17     177
  tile      47 on facet  6 (  1,  4): offset=    0   24 ; on Glob.Map=       1     185
  tile      48 on facet  6 (  2,  4): offset=   16   24 ; on Glob.Map=      17     185
(PID.TID 0000.0001) W2_SET_MAP_CUMSUM: setting Facet Matrix for CUMUL-SUM
(PID.TID 0000.0001) W2_SET_MAP_CUMSUM: set    5 /   6 active facets (pass,type=   1, 1)
 Facet Matrix for CUMUL-SUM (nFacets=   6, nActive=   6 ):
- facet  1 :  0  0 ,  0  0 ,  0  0 ,  0  0 ,  0  0 ,  0  0 ,
- facet  2 :  1  0 ,  0  0 ,  0  0 ,  0  0 ,  0  0 ,  0  0 ,
- facet  3 :  1  0 ,  0  1 ,  0  0 ,  0  0 ,  0  0 ,  0  0 ,
- facet  4 :  1  0 ,  0  1 ,  1  0 ,  0  0 ,  0  0 ,  0  0 ,
- facet  5 :  1  0 ,  0  1 ,  1  0 ,  0  1 ,  0  0 ,  0  0 ,
- facet  6 :  1  0 ,  0  1 ,  1  0 ,  0  1 ,  1  0 ,  0  0 ,
 missing-corner Tile for CUMUL-SUM (nTiles=      48 ): W2_tMC1=       7 , W2_tMC2=      10
(PID.TID 0000.0001) W2_SET_MAP_CUMSUM: done (skip Tile Matrix setting)
(PID.TID 0000.0001) W2_SET_TILE2TILES: tile neighbours and index connection:
Tile       1 : nbNeighb=  4 ; is-at-Facet-Edge: N= 0 , S= 1 , E= 0 , W= 1
 ns:  1 it=       3, iLo,iHi=     0    17, jLo,jHi=     9     9
 ns:  2 it=      47, iLo,iHi=     0    17, jLo,jHi=     0     0
 ns:  3 it=       2, iLo,iHi=    17    17, jLo,jHi=     0     9
 ns:  4 it=      40, iLo,iHi=     0     0, jLo,jHi=     0     9
Tile       2 : nbNeighb=  4 ; is-at-Facet-Edge: N= 0 , S= 1 , E= 1 , W= 0
 ns:  1 it=       4, iLo,iHi=     0    17, jLo,jHi=     9     9
 ns:  2 it=      48, iLo,iHi=     0    17, jLo,jHi=     0     0
 ns:  3 it=       9, iLo,iHi=    17    17, jLo,jHi=     0     9
 ns:  4 it=       1, iLo,iHi=     0     0, jLo,jHi=     0     9
Tile       3 : nbNeighb=  4 ; is-at-Facet-Edge: N= 0 , S= 0 , E= 0 , W= 1
 ns:  1 it=       5, iLo,iHi=     0    17, jLo,jHi=     9     9
 ns:  2 it=       1, iLo,iHi=     0    17, jLo,jHi=     0     0
 ns:  3 it=       4, iLo,iHi=    17    17, jLo,jHi=     0     9
 ns:  4 it=      40, iLo,iHi=     0     0, jLo,jHi=     0     9
Tile       4 : nbNeighb=  4 ; is-at-Facet-Edge: N= 0 , S= 0 , E= 1 , W= 0
 ns:  1 it=       6, iLo,iHi=     0    17, jLo,jHi=     9     9
 ns:  2 it=       2, iLo,iHi=     0    17, jLo,jHi=     0     0
 ns:  3 it=      11, iLo,iHi=    17    17, jLo,jHi=     0     9
 ns:  4 it=       3, iLo,iHi=     0     0, jLo,jHi=     0     9
Tile       5 : nbNeighb=  4 ; is-at-Facet-Edge: N= 0 , S= 0 , E= 0 , W= 1
 ns:  1 it=       7, iLo,iHi=     0    17, jLo,jHi=     9     9
 ns:  2 it=       3, iLo,iHi=     0    17, jLo,jHi=     0     0
 ns:  3 it=       6, iLo,iHi=    17    17, jLo,jHi=     0     9
 ns:  4 it=      39, iLo,iHi=     0     0, jLo,jHi=     0     9
Tile       6 : nbNeighb=  4 ; is-at-Facet-Edge: N= 0 , S= 0 , E= 1 , W= 0
 ns:  1 it=       8, iLo,iHi=     0    17, jLo,jHi=     9     9
 ns:  2 it=       4, iLo,iHi=     0    17, jLo,jHi=     0     0
 ns:  3 it=      13, iLo,iHi=    17    17, jLo,jHi=     0     9
 ns:  4 it=       5, iLo,iHi=     0     0, jLo,jHi=     0     9
Tile       7 : nbNeighb=  5 ; is-at-Facet-Edge: N= 1 , S= 0 , E= 0 , W= 1
 ns:  1 it=      21, iLo,iHi=     8    17, jLo,jHi=     9     9
 ns:  2 it=      23, iLo,iHi=     0     9, jLo,jHi=     9     9
 ns:  3 it=       5, iLo,iHi=     0    17, jLo,jHi=     0     0
 ns:  4 it=       8, iLo,iHi=    17    17, jLo,jHi=     0     9
 ns:  5 it=      39, iLo,iHi=     0     0, jLo,jHi=     0     9
Tile       8 : nbNeighb=  5 ; is-at-Facet-Edge: N= 1 , S= 0 , E= 1 , W= 0
 ns:  1 it=      17, iLo,iHi=     8    17, jLo,jHi=     9     9
 ns:  2 it=      19, iLo,iHi=     0     9, jLo,jHi=     9     9
 ns:  3 it=       6, iLo,iHi=     0    17, jLo,jHi=     0     0
 ns:  4 it=      15, iLo,iHi=    17    17, jLo,jHi=     0     9
 ns:  5 it=       7, iLo,iHi=     0     0, jLo,jHi=     0     9
Tile       9 : nbNeighb=  5 ; is-at-Facet-Edge: N= 0 , S= 1 , E= 0 , W= 1
 ns:  1 it=      11, iLo,iHi=     0    17, jLo,jHi=     9     9
 ns:  2 it=      46, iLo,iHi=     8    17, jLo,jHi=     0     0
 ns:  3 it=      48, iLo,iHi=     0     9, jLo,jHi=     0     0
 ns:  4 it=      10, iLo,iHi=    17    17, jLo,jHi=     0     9
 ns:  5 it=       2, iLo,iHi=     0     0, jLo,jHi=     0     9
Tile      10 : nbNeighb=  5 ; is-at-Facet-Edge: N= 0 , S= 1 , E= 1 , W= 0
 ns:  1 it=      12, iLo,iHi=     0    17, jLo,jHi=     9     9
 ns:  2 it=      42, iLo,iHi=     8    17, jLo,jHi=     0     0
 ns:  3 it=      44, iLo,iHi=     0     9, jLo,jHi=     0     0
 ns:  4 it=      26, iLo,iHi=    17    17, jLo,jHi=     0     9
 ns:  5 it=       9, iLo,iHi=     0     0, jLo,jHi=     0     9
Tile      11 : nbNeighb=  4 ; is-at-Facet-Edge: N= 0 , S= 0 , E= 0 , W= 1
 ns:  1 it=      13, iLo,iHi=     0    17, jLo,jHi=     9     9
 ns:  2 it=       9, iLo,iHi=     0    17, jLo,jHi=     0     0
 ns:  3 it=      12, iLo,iHi=    17    17, jLo,jHi=     0     9
 ns:  4 it=       4, iLo,iHi=     0     0, jLo,jHi=     0     9
Tile      12 : nbNeighb=  4 ; is-at-Facet-Edge: N= 0 , S= 0 , E= 1 , W= 0
 ns:  1 it=      14, iLo,iHi=     0    17, jLo,jHi=     9     9
 ns:  2 it=      10, iLo,iHi=     0    17, jLo,jHi=     0     0
 ns:  3 it=      26, iLo,iHi=    17    17, jLo,jHi=     0     9
 ns:  4 it=      11, iLo,iHi=     0     0, jLo,jHi=     0     9
Tile      13 : nbNeighb=  4 ; is-at-Facet-Edge: N= 0 , S= 0 , E= 0 , W= 1
 ns:  1 it=      15, iLo,iHi=     0    17, jLo,jHi=     9     9
 ns:  2 it=      11, iLo,iHi=     0    17, jLo,jHi=     0     0
 ns:  3 it=      14, iLo,iHi=    17    17, jLo,jHi=     0     9
 ns:  4 it=       6, iLo,iHi=     0     0, jLo,jHi=     0     9
Tile      14 : nbNeighb=  4 ; is-at-Facet-Edge: N= 0 , S= 0 , E= 1 , W= 0
 ns:  1 it=      16, iLo,iHi=     0    17, jLo,jHi=     9     9
 ns:  2 it=      12, iLo,iHi=     0    17, jLo,jHi=     0     0
 ns:  3 it=      25, iLo,iHi=    17    17, jLo,jHi=     0     9
 ns:  4 it=      13, iLo,iHi=     0     0, jLo,jHi=     0     9
Tile      15 : nbNeighb=  4 ; is-at-Facet-Edge: N= 1 , S= 0 , E= 0 , W= 1
 ns:  1 it=      17, iLo,iHi=     0    17, jLo,jHi=     9     9
 ns:  2 it=      13, iLo,iHi=     0    17, jLo,jHi=     0     0
 ns:  3 it=      16, iLo,iHi=    17    17, jLo,jHi=     0     9
 ns:  4 it=       8, iLo,iHi=     0     0, jLo,jHi=     0     9
Tile      16 : nbNeighb=  4 ; is-at-Facet-Edge: N= 1 , S= 0 , E= 1 , W= 0
 ns:  1 it=      18, iLo,iHi=     0    17, jLo,jHi=     9     9
 ns:  2 it=      14, iLo,iHi=     0    17, jLo,jHi=     0     0
 ns:  3 it=      25, iLo,iHi=    17    17, jLo,jHi=     0     9
 ns:  4 it=      15, iLo,iHi=     0     0, jLo,jHi=     0     9
Tile      17 : nbNeighb=  4 ; is-at-Facet-Edge: N= 0 , S= 1 , E= 0 , W= 1
 ns:  1 it=      19, iLo,iHi=     0    17, jLo,jHi=     9     9
 ns:  2 it=      15, iLo,iHi=     0    17, jLo,jHi=     0     0
 ns:  3 it=      18, iLo,iHi=    17    17, jLo,jHi=     0     9
 ns:  4 it=       8, iLo,iHi=     0     0, jLo,jHi=     0     9
Tile      18 : nbNeighb=  4 ; is-at-Facet-Edge: N= 0 , S= 1 , E= 1 , W= 0
 ns:  1 it=      20, iLo,iHi=     0    17, jLo,jHi=     9     9
 ns:  2 it=      16, iLo,iHi=     0    17, jLo,jHi=     0     0
 ns:  3 it=      25, iLo,iHi=    17    17, jLo,jHi=     0     9
 ns:  4 it=      17, iLo,iHi=     0     0, jLo,jHi=     0     9
Tile      19 : nbNeighb=  4 ; is-at-Facet-Edge: N= 0 , S= 0 , E= 0 , W= 1
 ns:  1 it=      21, iLo,iHi=     0    17, jLo,jHi=     9     9
 ns:  2 it=      17, iLo,iHi=     0    17, jLo,jHi=     0     0
 ns:  3 it=      20, iLo,iHi=    17    17, jLo,jHi=     0     9
 ns:  4 it=       8, iLo,iHi=     0     0, jLo,jHi=     0     9
Tile      20 : nbNeighb=  4 ; is-at-Facet-Edge: N= 0 , S= 0 , E= 1 , W= 0
 ns:  1 it=      22, iLo,iHi=     0    17, jLo,jHi=     9     9
 ns:  2 it=      18, iLo,iHi=     0    17, jLo,jHi=     0     0
 ns:  3 it=      27, iLo,iHi=    17    17, jLo,jHi=     0     9
 ns:  4 it=      19, iLo,iHi=     0     0, jLo,jHi=     0     9
Tile      21 : nbNeighb=  4 ; is-at-Facet-Edge: N= 0 , S= 0 , E= 0 , W= 1
 ns:  1 it=      23, iLo,iHi=     0    17, jLo,jHi=     9     9
 ns:  2 it=      19, iLo,iHi=     0    17, jLo,jHi=     0     0
 ns:  3 it=      22, iLo,iHi=    17    17, jLo,jHi=     0     9
 ns:  4 it=       7, iLo,iHi=     0     0, jLo,jHi=     0     9
Tile      22 : nbNeighb=  4 ; is-at-Facet-Edge: N= 0 , S= 0 , E= 1 , W= 0
 ns:  1 it=      24, iLo,iHi=     0    17, jLo,jHi=     9     9
 ns:  2 it=      20, iLo,iHi=     0    17, jLo,jHi=     0     0
 ns:  3 it=      29, iLo,iHi=    17    17, jLo,jHi=     0     9
 ns:  4 it=      21, iLo,iHi=     0     0, jLo,jHi=     0     9
Tile      23 : nbNeighb=  5 ; is-at-Facet-Edge: N= 1 , S= 0 , E= 0 , W= 1
 ns:  1 it=      37, iLo,iHi=     8    17, jLo,jHi=     9     9
 ns:  2 it=      39, iLo,iHi=     0     9, jLo,jHi=     9     9
 ns:  3 it=      21, iLo,iHi=     0    17, jLo,jHi=     0     0
 ns:  4 it=      24, iLo,iHi=    17    17, jLo,jHi=     0     9
 ns:  5 it=       7, iLo,iHi=     0     0, jLo,jHi=     0     9
Tile      24 : nbNeighb=  5 ; is-at-Facet-Edge: N= 1 , S= 0 , E= 1 , W= 0
 ns:  1 it=      33, iLo,iHi=     8    17, jLo,jHi=     9     9
 ns:  2 it=      35, iLo,iHi=     0     9, jLo,jHi=     9     9
 ns:  3 it=      22, iLo,iHi=     0    17, jLo,jHi=     0     0
 ns:  4 it=      31, iLo,iHi=    17    17, jLo,jHi=     0     9
 ns:  5 it=      23, iLo,iHi=     0     0, jLo,jHi=     0     9
Tile      25 : nbNeighb=  5 ; is-at-Facet-Edge: N= 0 , S= 1 , E= 0 , W= 1
 ns:  1 it=      27, iLo,iHi=     0    17, jLo,jHi=     9     9
 ns:  2 it=      14, iLo,iHi=     8    17, jLo,jHi=     0     0
 ns:  3 it=      16, iLo,iHi=     0     9, jLo,jHi=     0     0
 ns:  4 it=      26, iLo,iHi=    17    17, jLo,jHi=     0     9
 ns:  5 it=      18, iLo,iHi=     0     0, jLo,jHi=     0     9
Tile      26 : nbNeighb=  5 ; is-at-Facet-Edge: N= 0 , S= 1 , E= 1 , W= 0
 ns:  1 it=      28, iLo,iHi=     0    17, jLo,jHi=     9     9
 ns:  2 it=      10, iLo,iHi=     8    17, jLo,jHi=     0     0
 ns:  3 it=      12, iLo,iHi=     0     9, jLo,jHi=     0     0
 ns:  4 it=      42, iLo,iHi=    17    17, jLo,jHi=     0     9
 ns:  5 it=      25, iLo,iHi=     0     0, jLo,jHi=     0     9
Tile      27 : nbNeighb=  4 ; is-at-Facet-Edge: N= 0 , S= 0 , E= 0 , W= 1
 ns:  1 it=      29, iLo,iHi=     0    17, jLo,jHi=     9     9
 ns:  2 it=      25, iLo,iHi=     0    17, jLo,jHi=     0     0
 ns:  3 it=      28, iLo,iHi=    17    17, jLo,jHi=     0     9
 ns:  4 it=      20, iLo,iHi=     0     0, jLo,jHi=     0     9
Tile      28 : nbNeighb=  4 ; is-at-Facet-Edge: N= 0 , S= 0 , E= 1 , W= 0
 ns:  1 it=      30, iLo,iHi=     0    17, jLo,jHi=     9     9
 ns:  2 it=      26, iLo,iHi=     0    17, jLo,jHi=     0     0
 ns:  3 it=      42, iLo,iHi=    17    17, jLo,jHi=     0     9
 ns:  4 it=      27, iLo,iHi=     0     0, jLo,jHi=     0     9
Tile      29 : nbNeighb=  4 ; is-at-Facet-Edge: N= 0 , S= 0 , E= 0 , W= 1
 ns:  1 it=      31, iLo,iHi=     0    17, jLo,jHi=     9     9
 ns:  2 it=      27, iLo,iHi=     0    17, jLo,jHi=     0     0
 ns:  3 it=      30, iLo,iHi=    17    17, jLo,jHi=     0     9
 ns:  4 it=      22, iLo,iHi=     0     0, jLo,jHi=     0     9
Tile      30 : nbNeighb=  4 ; is-at-Facet-Edge: N= 0 , S= 0 , E= 1 , W= 0
 ns:  1 it=      32, iLo,iHi=     0    17, jLo,jHi=     9     9
 ns:  2 it=      28, iLo,iHi=     0    17, jLo,jHi=     0     0
 ns:  3 it=      41, iLo,iHi=    17    17, jLo,jHi=     0     9
 ns:  4 it=      29, iLo,iHi=     0     0, jLo,jHi=     0     9
Tile      31 : nbNeighb=  4 ; is-at-Facet-Edge: N= 1 , S= 0 , E= 0 , W= 1
 ns:  1 it=      33, iLo,iHi=     0    17, jLo,jHi=     9     9
 ns:  2 it=      29, iLo,iHi=     0    17, jLo,jHi=     0     0
 ns:  3 it=      32, iLo,iHi=    17    17, jLo,jHi=     0     9
 ns:  4 it=      24, iLo,iHi=     0     0, jLo,jHi=     0     9
Tile      32 : nbNeighb=  4 ; is-at-Facet-Edge: N= 1 , S= 0 , E= 1 , W= 0
 ns:  1 it=      34, iLo,iHi=     0    17, jLo,jHi=     9     9
 ns:  2 it=      30, iLo,iHi=     0    17, jLo,jHi=     0     0
 ns:  3 it=      41, iLo,iHi=    17    17, jLo,jHi=     0     9
 ns:  4 it=      31, iLo,iHi=     0     0, jLo,jHi=     0     9
Tile      33 : nbNeighb=  4 ; is-at-Facet-Edge: N= 0 , S= 1 , E= 0 , W= 1
 ns:  1 it=      35, iLo,iHi=     0    17, jLo,jHi=     9     9
 ns:  2 it=      31, iLo,iHi=     0    17, jLo,jHi=     0     0
 ns:  3 it=      34, iLo,iHi=    17    17, jLo,jHi=     0     9
 ns:  4 it=      24, iLo,iHi=     0     0, jLo,jHi=     0     9
Tile      34 : nbNeighb=  4 ; is-at-Facet-Edge: N= 0 , S= 1 , E= 1 , W= 0
 ns:  1 it=      36, iLo,iHi=     0    17, jLo,jHi=     9     9
 ns:  2 it=      32, iLo,iHi=     0    17, jLo,jHi=     0     0
 ns:  3 it=      41, iLo,iHi=    17    17, jLo,jHi=     0     9
 ns:  4 it=      33, iLo,iHi=     0     0, jLo,jHi=     0     9
Tile      35 : nbNeighb=  4 ; is-at-Facet-Edge: N= 0 , S= 0 , E= 0 , W= 1
 ns:  1 it=      37, iLo,iHi=     0    17, jLo,jHi=     9     9
 ns:  2 it=      33, iLo,iHi=     0    17, jLo,jHi=     0     0
 ns:  3 it=      36, iLo,iHi=    17    17, jLo,jHi=     0     9
 ns:  4 it=      24, iLo,iHi=     0     0, jLo,jHi=     0     9
Tile      36 : nbNeighb=  4 ; is-at-Facet-Edge: N= 0 , S= 0 , E= 1 , W= 0
 ns:  1 it=      38, iLo,iHi=     0    17, jLo,jHi=     9     9
 ns:  2 it=      34, iLo,iHi=     0    17, jLo,jHi=     0     0
 ns:  3 it=      43, iLo,iHi=    17    17, jLo,jHi=     0     9
 ns:  4 it=      35, iLo,iHi=     0     0, jLo,jHi=     0     9
Tile      37 : nbNeighb=  4 ; is-at-Facet-Edge: N= 0 , S= 0 , E= 0 , W= 1
 ns:  1 it=      39, iLo,iHi=     0    17, jLo,jHi=     9     9
 ns:  2 it=      35, iLo,iHi=     0    17, jLo,jHi=     0     0
 ns:  3 it=      38, iLo,iHi=    17    17, jLo,jHi=     0     9
 ns:  4 it=      23, iLo,iHi=     0     0, jLo,jHi=     0     9
Tile      38 : nbNeighb=  4 ; is-at-Facet-Edge: N= 0 , S= 0 , E= 1 , W= 0
 ns:  1 it=      40, iLo,iHi=     0    17, jLo,jHi=     9     9
 ns:  2 it=      36, iLo,iHi=     0    17, jLo,jHi=     0     0
 ns:  3 it=      45, iLo,iHi=    17    17, jLo,jHi=     0     9
 ns:  4 it=      37, iLo,iHi=     0     0, jLo,jHi=     0     9
Tile      39 : nbNeighb=  5 ; is-at-Facet-Edge: N= 1 , S= 0 , E= 0 , W= 1
 ns:  1 it=       5, iLo,iHi=     8    17, jLo,jHi=     9     9
 ns:  2 it=       7, iLo,iHi=     0     9, jLo,jHi=     9     9
 ns:  3 it=      37, iLo,iHi=     0    17, jLo,jHi=     0     0
 ns:  4 it=      40, iLo,iHi=    17    17, jLo,jHi=     0     9
 ns:  5 it=      23, iLo,iHi=     0     0, jLo,jHi=     0     9
Tile      40 : nbNeighb=  5 ; is-at-Facet-Edge: N= 1 , S= 0 , E= 1 , W= 0
 ns:  1 it=       1, iLo,iHi=     8    17, jLo,jHi=     9     9
 ns:  2 it=       3, iLo,iHi=     0     9, jLo,jHi=     9     9
 ns:  3 it=      38, iLo,iHi=     0    17, jLo,jHi=     0     0
 ns:  4 it=      47, iLo,iHi=    17    17, jLo,jHi=     0     9
 ns:  5 it=      39, iLo,iHi=     0     0, jLo,jHi=     0     9
Tile      41 : nbNeighb=  5 ; is-at-Facet-Edge: N= 0 , S= 1 , E= 0 , W= 1
 ns:  1 it=      43, iLo,iHi=     0    17, jLo,jHi=     9     9
 ns:  2 it=      30, iLo,iHi=     8    17, jLo,jHi=     0     0
 ns:  3 it=      32, iLo,iHi=     0     9, jLo,jHi=     0     0
 ns:  4 it=      42, iLo,iHi=    17    17, jLo,jHi=     0     9
 ns:  5 it=      34, iLo,iHi=     0     0, jLo,jHi=     0     9
Tile      42 : nbNeighb=  5 ; is-at-Facet-Edge: N= 0 , S= 1 , E= 1 , W= 0
 ns:  1 it=      44, iLo,iHi=     0    17, jLo,jHi=     9     9
 ns:  2 it=      26, iLo,iHi=     8    17, jLo,jHi=     0     0
 ns:  3 it=      28, iLo,iHi=     0     9, jLo,jHi=     0     0
 ns:  4 it=      10, iLo,iHi=    17    17, jLo,jHi=     0     9
 ns:  5 it=      41, iLo,iHi=     0     0, jLo,jHi=     0     9
Tile      43 : nbNeighb=  4 ; is-at-Facet-Edge: N= 0 , S= 0 , E= 0 , W= 1
 ns:  1 it=      45, iLo,iHi=     0    17, jLo,jHi=     9     9
 ns:  2 it=      41, iLo,iHi=     0    17, jLo,jHi=     0     0
 ns:  3 it=      44, iLo,iHi=    17    17, jLo,jHi=     0     9
 ns:  4 it=      36, iLo,iHi=     0     0, jLo,jHi=     0     9
Tile      44 : nbNeighb=  4 ; is-at-Facet-Edge: N= 0 , S= 0 , E= 1 , W= 0
 ns:  1 it=      46, iLo,iHi=     0    17, jLo,jHi=     9     9
 ns:  2 it=      42, iLo,iHi=     0    17, jLo,jHi=     0     0
 ns:  3 it=      10, iLo,iHi=    17    17, jLo,jHi=     0     9
 ns:  4 it=      43, iLo,iHi=     0     0, jLo,jHi=     0     9
Tile      45 : nbNeighb=  4 ; is-at-Facet-Edge: N= 0 , S= 0 , E= 0 , W= 1
 ns:  1 it=      47, iLo,iHi=     0    17, jLo,jHi=     9     9
 ns:  2 it=      43, iLo,iHi=     0    17, jLo,jHi=     0     0
 ns:  3 it=      46, iLo,iHi=    17    17, jLo,jHi=     0     9
 ns:  4 it=      38, iLo,iHi=     0     0, jLo,jHi=     0     9
Tile      46 : nbNeighb=  4 ; is-at-Facet-Edge: N= 0 , S= 0 , E= 1 , W= 0
 ns:  1 it=      48, iLo,iHi=     0    17, jLo,jHi=     9     9
 ns:  2 it=      44, iLo,iHi=     0    17, jLo,jHi=     0     0
 ns:  3 it=       9, iLo,iHi=    17    17, jLo,jHi=     0     9
 ns:  4 it=      45, iLo,iHi=     0     0, jLo,jHi=     0     9
Tile      47 : nbNeighb=  4 ; is-at-Facet-Edge: N= 1 , S= 0 , E= 0 , W= 1
 ns:  1 it=       1, iLo,iHi=     0    17, jLo,jHi=     9     9
 ns:  2 it=      45, iLo,iHi=     0    17, jLo,jHi=     0     0
 ns:  3 it=      48, iLo,iHi=    17    17, jLo,jHi=     0     9
 ns:  4 it=      40, iLo,iHi=     0     0, jLo,jHi=     0     9
Tile      48 : nbNeighb=  4 ; is-at-Facet-Edge: N= 1 , S= 0 , E= 1 , W= 0
 ns:  1 it=       2, iLo,iHi=     0    17, jLo,jHi=     9     9
 ns:  2 it=      46, iLo,iHi=     0    17, jLo,jHi=     0     0
 ns:  3 it=       9, iLo,iHi=    17    17, jLo,jHi=     0     9
 ns:  4 it=      47, iLo,iHi=     0     0, jLo,jHi=     0     9
(PID.TID 0000.0001) current Max.Nb.Neighbours (e.g., on tile    7 ) =  5
(PID.TID 0000.0001) ===== W2 TILE TOPOLOGY =====
(PID.TID 0000.0001)  TILE:     1 (bi,bj=   1   1 ), Nb of Neighbours =  4
(PID.TID 0000.0001)     NEIGHBOUR  1 = TILE       3 (n=  2) Comm = MSG (PROC=       3)
(PID.TID 0000.0001)     NEIGHBOUR  2 = TILE      47 (n=  1) Comm = MSG (PROC=      47)
(PID.TID 0000.0001)     NEIGHBOUR  3 = TILE       2 (n=  4) Comm = MSG (PROC=       2)
(PID.TID 0000.0001)     NEIGHBOUR  4 = TILE      40 (n=  1) Comm = MSG (PROC=      40)
Tile       1 (pr=       1) sends pts i=  -1:  18, j=   7:   8
                              to pts i=  -1:  18, j=  -1:   0 in tile        3 (pr=       3)
Tile       1 (pr=       1) sends pts i=  -1:  18, j=   1:   2
                              to pts i=  -1:  18, j=   9:  10 in tile       47 (pr=      47)
Tile       1 (pr=       1) sends pts i=  15:  16, j=  -1:  10
                              to pts i=  -1:   0, j=  -1:  10 in tile        2 (pr=       2)
Tile       1 (pr=       1) sends pts i=   1:   2, j=  10:  -1
                              to pts i=   7:  18, j=   9:  10 in tile       40 (pr=      40)
Tile       1 (pr=       1) recv pts i=  -1:  18, j=   9:  10 from tile       3 (pr=       3)
Tile       1 (pr=       1) recv pts i=  -1:  18, j=  -1:   0 from tile      47 (pr=      47)
Tile       1 (pr=       1) recv pts i=  17:  18, j=  -1:  10 from tile       2 (pr=       2)
Tile       1 (pr=       1) recv pts i=  -1:   0, j=  -1:  10 from tile      40 (pr=      40)
(PID.TID 0000.0001) ===  End TOPOLOGY report ===
