(PID.TID 0005.0001) 
(PID.TID 0005.0001) // ======================================================
(PID.TID 0005.0001) //                      MITgcm UV
(PID.TID 0005.0001) //                      =========
(PID.TID 0005.0001) // ======================================================
(PID.TID 0005.0001) // execution environment starting up...
(PID.TID 0005.0001) 
(PID.TID 0005.0001) // MITgcmUV version:  checkpoint69m
(PID.TID 0005.0001) // Build user:        hodahashemi
(PID.TID 0005.0001) // Build host:        Hodas-MacBook-Pro.local
(PID.TID 0005.0001) // Build date:        Wed May 13 09:19:31 EEST 2026
(PID.TID 0005.0001) 
(PID.TID 0005.0001) // =======================================================
(PID.TID 0005.0001) // Execution Environment parameter file "eedata"
(PID.TID 0005.0001) // =======================================================
(PID.TID 0005.0001) ># Example "eedata" file
(PID.TID 0005.0001) ># Lines beginning "#" are comments
(PID.TID 0005.0001) ># nTx - No. threads per process in X
(PID.TID 0005.0001) ># nTy - No. threads per process in Y
(PID.TID 0005.0001) > &EEPARMS
(PID.TID 0005.0001) > /
(PID.TID 0005.0001) ># Note: Some systems use & as the
(PID.TID 0005.0001) ># namelist terminator. Other systems
(PID.TID 0005.0001) ># use a / character (as shown here).
(PID.TID 0005.0001) 
(PID.TID 0005.0001) // =======================================================
(PID.TID 0005.0001) // Computational Grid Specification ( see files "SIZE.h" )
(PID.TID 0005.0001) //                                  ( and "eedata"       )
(PID.TID 0005.0001) // =======================================================
(PID.TID 0005.0001)      nPx =    4 ; /* No. processes in X */
(PID.TID 0005.0001)      nPy =    2 ; /* No. processes in Y */
(PID.TID 0005.0001)      nSx =    1 ; /* No. tiles in X per process */
(PID.TID 0005.0001)      nSy =    1 ; /* No. tiles in Y per process */
(PID.TID 0005.0001)      sNx =  360 ; /* Tile size in X */
(PID.TID 0005.0001)      sNy =  360 ; /* Tile size in Y */
(PID.TID 0005.0001)      OLx =    2 ; /* Tile overlap distance in X */
(PID.TID 0005.0001)      OLy =    2 ; /* Tile overlap distance in Y */
(PID.TID 0005.0001)      nTx =    1 ; /* No. threads in X per process */
(PID.TID 0005.0001)      nTy =    1 ; /* No. threads in Y per process */
(PID.TID 0005.0001)       Nr =    1 ; /* No. levels in the vertical   */
(PID.TID 0005.0001)       Nx = 1440 ; /* Total domain size in X ( = nPx*nSx*sNx ) */
(PID.TID 0005.0001)       Ny =  720 ; /* Total domain size in Y ( = nPy*nSy*sNy ) */
(PID.TID 0005.0001)   nTiles =    1 ; /* Total no. tiles per process ( = nSx*nSy ) */
(PID.TID 0005.0001)   nProcs =    8 ; /* Total no. processes ( = nPx*nPy ) */
(PID.TID 0005.0001) nThreads =    1 ; /* Total no. threads per process ( = nTx*nTy ) */
(PID.TID 0005.0001) usingMPI =    T ; /* Flag used to control whether MPI is in use */
(PID.TID 0005.0001)                   /*  note: To execute a program with MPI calls */
(PID.TID 0005.0001)                   /*  it must be launched appropriately e.g     */
(PID.TID 0005.0001)                   /*  "mpirun -np 64 ......"                    */
(PID.TID 0005.0001) useCoupler=   F ; /* Flag used to control communications with   */
(PID.TID 0005.0001)                   /*  other model components, through a coupler */
(PID.TID 0005.0001) useNest2W_parent =    F ;/* Control 2-W Nesting comm */
(PID.TID 0005.0001) useNest2W_child  =    F ;/* Control 2-W Nesting comm */
(PID.TID 0005.0001) debugMode =    F ; /* print debug msg. (sequence of S/R calls)  */
(PID.TID 0005.0001) printMapIncludesZeros=    F ; /* print zeros in Std.Output maps */
(PID.TID 0005.0001) maxLengthPrt1D=   65 /* maxLength of 1D array printed to StdOut */
(PID.TID 0005.0001) 
(PID.TID 0005.0001) ======= Starting MPI parallel Run =========
(PID.TID 0005.0001)  My Processor Name (len: 23 ) = Hodas-MacBook-Pro.local
(PID.TID 0005.0001)  Located at (  2,  1) on processor grid (0:  3,0:  1)
(PID.TID 0005.0001)  Origin at  (   721,   361) on global grid (1:  1440,1:   720)
(PID.TID 0005.0001)  North neighbor = processor 0004
(PID.TID 0005.0001)  South neighbor = processor 0004
(PID.TID 0005.0001)   East neighbor = processor 0007
(PID.TID 0005.0001)   West neighbor = processor 0003
(PID.TID 0005.0001) // ======================================================
(PID.TID 0005.0001) // Mapping of tiles to threads
(PID.TID 0005.0001) // ======================================================
(PID.TID 0005.0001) // -o- Thread   1, tiles (   1:   1,   1:   1)
(PID.TID 0005.0001) 
(PID.TID 0005.0001) // ======================================================
(PID.TID 0005.0001) // Tile <-> Tile connectvity table
(PID.TID 0005.0001) // ======================================================
(PID.TID 0005.0001) // Tile number: 000007 (process no. = 000005)
(PID.TID 0005.0001) //        WEST: Tile = 000006, Process = 000003, Comm = messages
(PID.TID 0005.0001) //                bi = 000001, bj = 000001
(PID.TID 0005.0001) //        EAST: Tile = 000008, Process = 000007, Comm = messages
(PID.TID 0005.0001) //                bi = 000001, bj = 000001
(PID.TID 0005.0001) //       SOUTH: Tile = 000003, Process = 000004, Comm = messages
(PID.TID 0005.0001) //                bi = 000001, bj = 000001
(PID.TID 0005.0001) //       NORTH: Tile = 000003, Process = 000004, Comm = messages
(PID.TID 0005.0001) //                bi = 000001, bj = 000001
(PID.TID 0005.0001) 
(PID.TID 0005.0001)  INI_PARMS: opening model parameter file "data"
(PID.TID 0005.0001)  OPEN_COPY_DATA_FILE: opening file data
(PID.TID 0005.0001) // =======================================================
(PID.TID 0005.0001) // Parameter file "data"
(PID.TID 0005.0001) // =======================================================
(PID.TID 0005.0001) ># ===============================================================
(PID.TID 0005.0001) ># Vortex Sphere MITgcm Reference Case (MITgcm native solve)
(PID.TID 0005.0001) ># One-layer, global lat-lon, linearized barotropic dynamics.
(PID.TID 0005.0001) ># ===============================================================
(PID.TID 0005.0001) >
(PID.TID 0005.0001) ># Continuous equation parameters
(PID.TID 0005.0001) >&PARM01
(PID.TID 0005.0001) ># Planet / fluid
(PID.TID 0005.0001) > omega = 7.292E-5,
(PID.TID 0005.0001) > gravity = 9.81,
(PID.TID 0005.0001) > rhoConst = 1000.,
(PID.TID 0005.0001) > buoyancyRelation = 'OCEANIC',
(PID.TID 0005.0001) > eosType = 'LINEAR',
(PID.TID 0005.0001) >
(PID.TID 0005.0001) ># Dynamics switches
(PID.TID 0005.0001) > rigidLid = .FALSE.,
(PID.TID 0005.0001) > implicitFreeSurface = .TRUE.,
(PID.TID 0005.0001) > exactConserv = .TRUE.,
(PID.TID 0005.0001) > momStepping = .TRUE.,
(PID.TID 0005.0001) > momAdvection = .FALSE.,
(PID.TID 0005.0001) > useCoriolis = .TRUE.,
(PID.TID 0005.0001) > tempStepping = .FALSE.,
(PID.TID 0005.0001) > saltStepping = .FALSE.,
(PID.TID 0005.0001) >
(PID.TID 0005.0001) ># Viscosity / diffusion (set to zero to stay close to inviscid linear regime)
(PID.TID 0005.0001) > viscAh = 0.,
(PID.TID 0005.0001) > viscA4 = 0.,
(PID.TID 0005.0001) > diffKhT = 0.,
(PID.TID 0005.0001) > no_slip_sides = .FALSE.,
(PID.TID 0005.0001) > no_slip_bottom = .FALSE.,
(PID.TID 0005.0001) > hFacMin = 1.E-5,
(PID.TID 0005.0001) > hFacMinDr = 0.5,
(PID.TID 0005.0001) >
(PID.TID 0005.0001) ># I/O precision
(PID.TID 0005.0001) > readBinaryPrec = 32,
(PID.TID 0005.0001) > writeBinaryPrec = 64,
(PID.TID 0005.0001) > useSingleCpuIO = .TRUE.,
(PID.TID 0005.0001) >/
(PID.TID 0005.0001) >
(PID.TID 0005.0001) ># Elliptic solver parameters
(PID.TID 0005.0001) >&PARM02
(PID.TID 0005.0001) > cg2dMaxIters = 5000,
(PID.TID 0005.0001) > cg2dTargetResidual = 1.E-10,
(PID.TID 0005.0001) > cg2dPreCondFreq = 1,
(PID.TID 0005.0001) >/
(PID.TID 0005.0001) >
(PID.TID 0005.0001) ># Time stepping parameters
(PID.TID 0005.0001) >&PARM03
(PID.TID 0005.0001) > nIter0=0,
(PID.TID 0005.0001) > nTimeSteps=24 ,
(PID.TID 0005.0001) > abEps=0.1,
(PID.TID 0005.0001) > deltaT=900.,
(PID.TID 0005.0001) > cAdjFreq=0.,
(PID.TID 0005.0001) > pChkptFreq=0.,
(PID.TID 0005.0001) > chkptFreq=0.,
(PID.TID 0005.0001) > dumpFreq=10800.,
(PID.TID 0005.0001) > monitorSelect=1,
(PID.TID 0005.0001) > monitorFreq=1.,
(PID.TID 0005.0001) >/
(PID.TID 0005.0001) >
(PID.TID 0005.0001) ># Grid parameters
(PID.TID 0005.0001) >&PARM04
(PID.TID 0005.0001) > usingSphericalPolarGrid = .TRUE.,
(PID.TID 0005.0001) > delX = 1440*0.25,
(PID.TID 0005.0001) > delY = 720*0.25,
(PID.TID 0005.0001) > xgOrigin = 0.,
(PID.TID 0005.0001) > ygOrigin = -90.,
(PID.TID 0005.0001) > rSphere = 6371000.,
(PID.TID 0005.0001) > delR = 11000.,
(PID.TID 0005.0001) >/
(PID.TID 0005.0001) >
(PID.TID 0005.0001) ># Input datasets
(PID.TID 0005.0001) >&PARM05
(PID.TID 0005.0001) > bathyFile = 'bathymetry.bin',
(PID.TID 0005.0001) > pSurfInitFile = 'eta_init.bin',
(PID.TID 0005.0001) > uVelInitFile  = 'u_init.bin'
(PID.TID 0005.0001) > vVelInitFile  = 'v_init.bin'
(PID.TID 0005.0001) >/
(PID.TID 0005.0001) >
(PID.TID 0005.0001) 
(PID.TID 0005.0001)  INI_PARMS ; starts to read PARM01
(PID.TID 0005.0001)  INI_PARMS ; read PARM01 : OK
(PID.TID 0005.0001)  INI_PARMS ; starts to read PARM02
(PID.TID 0005.0001)  INI_PARMS ; read PARM02 : OK
(PID.TID 0005.0001)  INI_PARMS ; starts to read PARM03
(PID.TID 0005.0001)  INI_PARMS ; read PARM03 : OK
(PID.TID 0005.0001)  INI_PARMS ; starts to read PARM04
(PID.TID 0005.0001)  INI_PARMS ; read PARM04 : OK
(PID.TID 0005.0001)  INI_PARMS ; starts to read PARM05
(PID.TID 0005.0001)  INI_PARMS ; read PARM05 : OK
(PID.TID 0005.0001)  INI_PARMS: finished reading file "data"
(PID.TID 0005.0001)  PACKAGES_BOOT: opening data.pkg
(PID.TID 0005.0001)  OPEN_COPY_DATA_FILE: opening file data.pkg
(PID.TID 0005.0001) // =======================================================
(PID.TID 0005.0001) // Parameter file "data.pkg"
(PID.TID 0005.0001) // =======================================================
(PID.TID 0005.0001) ># Packages
(PID.TID 0005.0001) > &PACKAGES
(PID.TID 0005.0001) > useDiagnostics=.TRUE.,
(PID.TID 0005.0001) > /
(PID.TID 0005.0001) 
(PID.TID 0005.0001)  PACKAGES_BOOT: finished reading data.pkg
(PID.TID 0005.0001)  PACKAGES_BOOT: On/Off package Summary
 --------  pkgs with a standard "usePKG" On/Off switch in "data.pkg":  --------
 pkg/diagnostics          compiled   and   used ( useDiagnostics           = T )
 pkg/mypackage            compiled but not used ( useMYPACKAGE             = F )
 -------- pkgs without standard "usePKG" On/Off switch in "data.pkg":  --------
 pkg/generic_advdiff      compiled but not used ( useGAD                   = F )
 pkg/mom_common           compiled   and   used ( momStepping              = T )
 pkg/mom_vecinv           compiled but not used ( +vectorInvariantMomentum = F )
 pkg/mom_fluxform         compiled   and   used ( & not vectorInvariantMom = T )
 pkg/monitor              compiled   and   used ( monitorFreq > 0.         = T )
 pkg/debug                compiled but not used ( debugMode                = F )
 pkg/rw                   compiled   and   used
 pkg/mdsio                compiled   and   used
(PID.TID 0005.0001)  PACKAGES_BOOT: End of package Summary
(PID.TID 0005.0001) 
(PID.TID 0005.0001)  DIAGNOSTICS_READPARMS: opening data.diagnostics
(PID.TID 0005.0001)  OPEN_COPY_DATA_FILE: opening file data.diagnostics
(PID.TID 0005.0001) // =======================================================
(PID.TID 0005.0001) // Parameter file "data.diagnostics"
(PID.TID 0005.0001) // =======================================================
(PID.TID 0005.0001) ># Diagnostic Package Choices
(PID.TID 0005.0001) >#--------------------
(PID.TID 0005.0001) >#  dumpAtLast (logical): always write output at the end of simulation (default=F)
(PID.TID 0005.0001) >#  diag_mnc   (logical): write to NetCDF files (default=useMNC)
(PID.TID 0005.0001) >#--for each output-stream:
(PID.TID 0005.0001) >#  fileName(n) : prefix of the output file name (max 80c long) for outp.stream n
(PID.TID 0005.0001) >#  frequency(n):< 0 : write snap-shot output every |frequency| seconds
(PID.TID 0005.0001) >#               > 0 : write time-average output every frequency seconds
(PID.TID 0005.0001) >#  timePhase(n)     : write at time = timePhase + multiple of |frequency|
(PID.TID 0005.0001) >#    averagingFreq  : frequency (in s) for periodic averaging interval
(PID.TID 0005.0001) >#    averagingPhase : phase     (in s) for periodic averaging interval
(PID.TID 0005.0001) >#    repeatCycle    : number of averaging intervals in 1 cycle
(PID.TID 0005.0001) >#  levels(:,n) : list of levels to write to file (Notes: declared as REAL)
(PID.TID 0005.0001) >#                when this entry is missing, select all common levels of this list
(PID.TID 0005.0001) >#  fields(:,n) : list of selected diagnostics fields (8.c) in outp.stream n
(PID.TID 0005.0001) >#                (see "available_diagnostics.log" file for the full list of diags)
(PID.TID 0005.0001) >#  missing_value(n) : missing value for real-type fields in output file "n"
(PID.TID 0005.0001) >#  fileFlags(n)     : specific code (8c string) for output file "n"
(PID.TID 0005.0001) >#--------------------
(PID.TID 0005.0001) > &DIAGNOSTICS_LIST
(PID.TID 0005.0001) ># diag_mnc     = .FALSE.,
(PID.TID 0005.0001) ># useMissingValue=.TRUE.,
(PID.TID 0005.0001) >  xPsi0 = 135.,
(PID.TID 0005.0001) >  yPsi0 =  0.,
(PID.TID 0005.0001) >#--
(PID.TID 0005.0001) >  fields(1:5,3) = 'UVELMASS','VVELMASS',
(PID.TID 0005.0001) >                  'ETAN    ','ETANSQ  ','DETADT2 ',
(PID.TID 0005.0001) >   fileName(3) = 'dynDiag',
(PID.TID 0005.0001) >  frequency(3) = -21600.,
(PID.TID 0005.0001) >  timePhase(3) = -1800.,
(PID.TID 0005.0001) >
(PID.TID 0005.0001) >  fields(1:3,2) = 'WVELMASS','PhiVEL  ','PsiVEL  ',
(PID.TID 0005.0001) >   fileName(2) = 'dyn_Aux',
(PID.TID 0005.0001) ># fileFlags(2) = 'D       ',
(PID.TID 0005.0001) >  frequency(2) = -21600.,
(PID.TID 0005.0001) >  timePhase(2) = -1800.,
(PID.TID 0005.0001) > /
(PID.TID 0005.0001) >
(PID.TID 0005.0001) >#--------------------
(PID.TID 0005.0001) ># Parameter for Diagnostics of per level statistics:
(PID.TID 0005.0001) >#--------------------
(PID.TID 0005.0001) >#  diagSt_mnc (logical): write stat-diags to NetCDF files (default=diag_mnc)
(PID.TID 0005.0001) >#  diagSt_regMaskFile : file containing the region-mask to read-in
(PID.TID 0005.0001) >#  nSetRegMskFile   : number of region-mask sets within the region-mask file
(PID.TID 0005.0001) >#  set_regMask(i)   : region-mask set-index that identifies the region "i"
(PID.TID 0005.0001) >#  val_regMask(i)   : region "i" identifier value in the region mask
(PID.TID 0005.0001) >#--for each output-stream:
(PID.TID 0005.0001) >#  stat_fName(n) : prefix of the output file name (max 80c long) for outp.stream n
(PID.TID 0005.0001) >#  stat_freq(n):< 0 : write snap-shot output every |stat_freq| seconds
(PID.TID 0005.0001) >#               > 0 : write time-average output every stat_freq seconds
(PID.TID 0005.0001) >#  stat_phase(n)    : write at time = stat_phase + multiple of |stat_freq|
(PID.TID 0005.0001) >#  stat_region(:,n) : list of "regions" (default: 1 region only=global)
(PID.TID 0005.0001) >#  stat_fields(:,n) : list of selected diagnostics fields (8.c) in outp.stream n
(PID.TID 0005.0001) >#                (see "available_diagnostics.log" file for the full list of diags)
(PID.TID 0005.0001) >#--------------------
(PID.TID 0005.0001) > &DIAG_STATIS_PARMS
(PID.TID 0005.0001) ># diagSt_mnc    = .TRUE.,
(PID.TID 0005.0001) > stat_fields(1:5,1)  = 'ETAN    ','ETANSQ  ','DETADT2 ',
(PID.TID 0005.0001) >                       'UVEL    ','VVEL    ',
(PID.TID 0005.0001) >  stat_fName(1) = 'dynStDiag',
(PID.TID 0005.0001) >   stat_freq(1) = -7200.,
(PID.TID 0005.0001) >  stat_phase(1) = 0.,
(PID.TID 0005.0001) > /
(PID.TID 0005.0001) >
(PID.TID 0005.0001) 
(PID.TID 0005.0001) S/R DIAGNOSTICS_READPARMS, read namelist "diagnostics_list": start
(PID.TID 0005.0001) S/R DIAGNOSTICS_READPARMS, read namelist "diagnostics_list": OK
(PID.TID 0005.0001) S/R DIAGNOSTICS_READPARMS, read namelist "DIAG_STATIS_PARMS": start
(PID.TID 0005.0001) S/R DIAGNOSTICS_READPARMS, read namelist "DIAG_STATIS_PARMS": OK
(PID.TID 0005.0001) -----------------------------------------------------
(PID.TID 0005.0001)  DIAGNOSTICS_READPARMS: global parameter summary:
(PID.TID 0005.0001)  diag_dBugLevel = /* level of printed debug messages */
(PID.TID 0005.0001)                       2
(PID.TID 0005.0001)     ;
(PID.TID 0005.0001)  dumpAtLast = /* always write time-ave diags at the end */
(PID.TID 0005.0001)                   F
(PID.TID 0005.0001)     ;
(PID.TID 0005.0001)  diag_mnc =   /* write NetCDF output files */
(PID.TID 0005.0001)                   F
(PID.TID 0005.0001)     ;
(PID.TID 0005.0001)  useMissingValue = /* put MissingValue where mask = 0 */
(PID.TID 0005.0001)                   F
(PID.TID 0005.0001)     ;
(PID.TID 0005.0001)  diagCG_maxIters = /* max number of iters in diag_cg2d */
(PID.TID 0005.0001)                    5000
(PID.TID 0005.0001)     ;
(PID.TID 0005.0001)  diagCG_resTarget = /* residual target for diag_cg2d */
(PID.TID 0005.0001)                 1.000000000000000E-10
(PID.TID 0005.0001)     ;
(PID.TID 0005.0001)  diagCG_pcOffDFac = /* preconditioner off-diagonal factor */
(PID.TID 0005.0001)                 9.611687812379854E-01
(PID.TID 0005.0001)     ;
(PID.TID 0005.0001) -----------------------------------------------------
(PID.TID 0005.0001)  DIAGNOSTICS_READPARMS: active diagnostics summary:
(PID.TID 0005.0001) -----------------------------------------------------
(PID.TID 0005.0001) Creating Output Stream: dyn_Aux
(PID.TID 0005.0001) Output Frequency:     -21600.000000 ; Phase:       -1800.000000
(PID.TID 0005.0001)  Averaging Freq.:          0.000000 , Phase:           0.000000 , Cycle:   1
(PID.TID 0005.0001)  missing value: -9.990000000000E+02
(PID.TID 0005.0001)  Levels:    will be set later
(PID.TID 0005.0001)  Fields:    WVELMASS PhiVEL   PsiVEL
(PID.TID 0005.0001) Creating Output Stream: dynDiag
(PID.TID 0005.0001) Output Frequency:     -21600.000000 ; Phase:       -1800.000000
(PID.TID 0005.0001)  Averaging Freq.:          0.000000 , Phase:           0.000000 , Cycle:   1
(PID.TID 0005.0001)  missing value: -9.990000000000E+02
(PID.TID 0005.0001)  Levels:    will be set later
(PID.TID 0005.0001)  Fields:    UVELMASS VVELMASS ETAN     ETANSQ   DETADT2
(PID.TID 0005.0001) -----------------------------------------------------
(PID.TID 0005.0001)  DIAGNOSTICS_READPARMS: statistics diags. summary:
(PID.TID 0005.0001) Creating Stats. Output Stream: dynStDiag
(PID.TID 0005.0001) Output Frequency:      -7200.000000 ; Phase:           0.000000
(PID.TID 0005.0001)  Regions:   0
(PID.TID 0005.0001)  Fields:    ETAN     ETANSQ   DETADT2  UVEL     VVEL
(PID.TID 0005.0001) -----------------------------------------------------
(PID.TID 0005.0001) 
(PID.TID 0005.0001) SET_PARMS: done
(PID.TID 0005.0001) Enter INI_VERTICAL_GRID: setInterFDr=    T ; setCenterDr=    F
(PID.TID 0005.0001) // =======================================================
(PID.TID 0005.0001) // Field Model R_low (ini_masks_etc)
(PID.TID 0005.0001) // CMIN =         -7.532000000000000E+03
(PID.TID 0005.0001) // CMAX =         -9.999999999999999E-01
(PID.TID 0005.0001) // CINT =          2.789259259259259E+02
(PID.TID 0005.0001) // SYMBOLS (CMIN->CMAX): -abcdefghijklmnopqrstuvwxyz+
(PID.TID 0005.0001) //                  0.0: .
(PID.TID 0005.0001) // RANGE I (Lo:Hi:Step):(   719:  1082:     1)
(PID.TID 0005.0001) // RANGE J (Lo:Hi:Step):(   722:   359:    -1)
(PID.TID 0005.0001) // RANGE K (Lo:Hi:Step):(   1:   1:   1)
(PID.TID 0005.0001) // =======================================================
(PID.TID 0005.0001) K =   1
(PID.TID 0005.0001) //                I=728     I=738     I=748     I=758     I=768     I=778     I=788     I=798     I=808     I=818     I=828     I=838     I=848     I=858     I=868     I=878     I=888     I=898     I=908     I=918     I=928     I=938     I=948     I=958     I=968     I=978     I=988     I=998     I=1008    I=1018    I=1028    I=1038    I=1048    I=1058    I=1068    I=1078
(PID.TID 0005.0001) // |--J--|901234567|901234567|901234567|901234567|901234567|901234567|901234567|901234567|901234567|901234567|901234567|901234567|901234567|901234567|901234567|901234567|901234567|901234567|901234567|901234567|901234567|901234567|901234567|901234567|901234567|901234567|901234567|901234567|901234567|901234567|901234567|901234567|901234567|901234567|901234567|901234567|9012
(PID.TID 0005.0001) //    722 ............................................................................................................................................................................................................................................................................................................................................................................
(PID.TID 0005.0001) //    721 ............................................................................................................................................................................................................................................................................................................................................................................
(PID.TID 0005.0001) //    720 llllllllllllllllllllllllllllllllllllllllllllllllllllllllllllllllllllllllllllllllllllllllllllllllllllllllllllllllllllllllllllllllllllllllllllllllllllllllllllllllllllllllllllllllllllllllllllllllllllllllllllllllllllllllllllllllllllllllllllllllllllllllllllllllllllllllllllllllllllllllllllllllllllllllllllllllllllllllllllllllllllllllllllllllllllmmmmmmmmmmmmmmmmmmmmmmmm
(PID.TID 0005.0001) //    719 llllllllllllllllllllllllllllllllllllmmmmmmmmmmmmmmmmmmmmmmmmmmmmmmmmmmmmmmmmmmmmmmmmmmmmmmmmmmmmmmmmmmmmmmmmmmmmmmmmmmmmmmmmnnnnnnnnnnnnnnnnnnnnnnnnnnnnnnnnnnnnnnnnnnnnnnnnnnnnnnnnnnnnnnnnnnnnnnnnnnnnnnnnnnnnnnnnnnnnnnnnnnnnnoooooooooooooonnnnnnnnnnnnnnnnnnnnoooooonnnnnnnnnnnnnnnnnnnnnnnnnnnnnnnnnnnnnnnnnnnnnnnnnnnnnnnnnnnnnnnnnnnnnnnnnnnnnnnnnnnnnnnnnnnnnnnnnno
(PID.TID 0005.0001) //    718 nnnnnnnnnnnnnnnnnnnnnnnnnooooooooooooooooooooooooooooooooooooooooooooooooooooooooooooooonnnnnnnnnnnnnnnnnoooooooooooonnnnnnooooooooooooooooooooooooooooooopppppppppppppppppppppppppppppppppppppppppqqqqqqqqqqqqqqqqqqqqqqqqqqqqqqqqqqqqqqqqqqqqrrrrrrrrrrrrrrrrrrrrrrrrrrrrrrrrrrrrrrrrrrrrrrrrrrrrrrrqqqqqqqqqqqqqqqqqqqqqqqqqqqqqqqqqqqqqqqqqqqqqqqqqqqqqqqqqqqqqqqqqqqqqq
(PID.TID 0005.0001) //    717 qqqqqqqqqqqqqqqqqqqqqqqqqqqqqqqqqqqqqqqqqqqqqqqqqqqqqqppppppppppppppppppooooooooooooooooooonnnnnnnnnnnnnnnnnnnnnnnnnnnnnnnnnnnnnnnnnnnnnnnnnnooooooooooooooooooooooooooppppppppppppppppppppppppppppppppppppqqqqqqqqqqqqqqqqqqqqqqqqqqqqqrrrrrrrrrrrrrrrrrrrrsssssssssssssssssssssttssstttttsttttttssssssssssssssssrrrrrrrrrrrrrrrrrrrrrrrrrrrrrrrrrrrrrrrrrrssssssssssssssss
(PID.TID 0005.0001) //    716 qqqqqqqqqqqqqqqqqqqqqqqqqpppqqqqpppppppppppppppppppppppppppppppooooooooooonnnnnnnnnnnnnmmmmmmmmmmmmmmmmmmmmmmmmmmmmmmmmmmmmmmmmmmmmmmmmmmmmmmmmmmmmmmmmmmmnnnnnnnnnnnnnnnnnnnnnnnnooooooooooooooooooooooooooooooooooooooooooooooopppppppppppppppppppppqqqqqqqqqqrrrrrrrrrrrsssssssssssssssssssssssssssssssssssssssssssrrrrrrrrrrsssssrrrrrrrrrsssssssssssssssstttttttttttttt
(PID.TID 0005.0001) //    715 ooooooooooooooooooonnnnnnnnnnnnnnnnnnnnnnnnnooooooooooooooooooooooooooonnnnnnnnnnnnmmmmmmmmmmmmmmmmmmmmmmmmmmmmmmmmmmmmmmmmmmmmmmmmmmmmmmmmmmmmmmmmmmmmmmmmmmmmmmmmmmmmmmmmmmmmmmmmmmmmmmmmmmmmmmmmmmmmmmmmmmmmmmmmmnnnnnnnnnnnnnnnnnnnnnnnnnnnoooooooooooooppppppppppqqqqqqqqqqqqqqqqqqqqqqqqqqqqqqqqqqqqqqqqqqrrrrrrrrrrrrrrrrrrrrrrrrrrrrrrrrrrrrsssssssssssssssssssssstt
(PID.TID 0005.0001) //    714 mmmmmmmmmmmmmmmmmmmmmmmmmmmmmmmmmmmmmmmnnnnnnnnnnnnnnnnnnnooooooooooooooonnnnnnnnnnmmmmmmmmmmmmmnnnnnnnnnnnnnnnnnnnnnnnnnnnnnnnnnnnnnnnnnnnnnnnnnnnnnnnnnnnnnnnnnnnnnnnnnnnnnnnnmmmmmmmmmmmmmmmmmmmmmnnnnnnnnnnnnnnnnnnnnnnnnnnnnnnnnnnnnnnnnnnnnooooooooooooooppppppppppppqqqqqqqqqqqqqqqqqqqqqqqqqqqqqqqqqrrrrrrrrrrrrrrrrrrrrrrrrrrrrrrssssssssssssssssssssssssssssssssss
(PID.TID 0005.0001) //    713 mmmmmmmmmmmmmmmmmmmmmmmmmmmmmmmmmmmmmnnnnnnnnnnnnnnnnnnnnnnnnnnnnnnnnnnnnnnnnnnnnnnmmmmmmmmmmnnnnnnnnnnnoooooooooooonnnnnnnnnnnnnnnnnnnnnnnnnnnnnnnnnnnnnnnnnnoooooonnnooooooonnnnnnnnnnnnnnnnnoooooooooooooooooooooooooooooooooooooooooooooooooooooooooopppppppppppppppppqqqqqqqqqqqqqqqqqqqqqqqqqqqrrrrrrrrrrrrrrrrrrrrrrrrrrrrrrrrrrrrssssssssssttttttttttttttttttuuuuuuu
(PID.TID 0005.0001) //    712 ooooooooooooooooooooooonnnnnnnnnnmmmmmmmmmmmmmmmmmmmmmmmmmmmmmmmmmnnnnnnnnnnnnnnnnnnnnnnnnnnnnnnnoooooooooooooooooooooooooooooooooooooooooooooooooooooooooooooppppppppppppppppppppppppooopppppppppppppppppppppppppppppppppppppppppppppppppppppppppppppppppppppppppppppppqqqqqqqqqqqqqqqqqqqqqqqqqqqqqqqqqqqqqqrrrrrrqqqqqqqqqqqqqqqqqqqrrrrrrssssssttttttttuuuuuuuuuuvvvvvvv
(PID.TID 0005.0001) //    711 nnoooooooooooooooooonnnnnnnnnmmmmmmmmmmmmmmmmmmmmmmmmmmmmmmmmmmmmmmnnnnnnnnnnnnnnnooonnnnnnooooooooooooppppppppppppppppppppppppppppppppppppppppppppppqqqqqqqqqqqqqqqqqqqqqqqqqqqqqqqqqqpppqqqqqqqqqqqqqqqqqqqqqqqqqqqqqqqqqqqqqqqqqqqqqqqqqqqqqqqqqqqqqqqqqqqqqqqqqqqqqqqqqqqqqqqqqqqqqqqqqqqqqqqqqqqqqqqqqqqqqqqqqqqqqqqqqqqqqqqqqqqqqqqrrrrrssssssttttttttuuuuuuuuuvvvvvvv
(PID.TID 0005.0001) //    710 mmmmmmmmmmmmmmmmmmmmmmmmmmmmmmmmmmmmmmmmmmmmmmmmmmmmmmmmmmmmmmmmmmmmnnnnnnnnnnnnnoooooooooooooooooooooooppppppppppppppqqqqqqqqqqqqqqqqqqqqqqqqqqqqqqqqqqrrrrrrrrrrrrrrrrrrrrrrrrrrrrrrrrrrrrrrrrrrrrrrrrrrrrrrrrrrrrrrrrrrrrrrrrrrrrrrrrrrrrrrrrrrrrrrrrrrrrrrrrrrrrrrrrqqqqqqqqqqqqqqqqqqqqqqqqqqqqqqqqqqqqqqqqqqqqqqqqqqqqqqqqqqqqqqrrrrrrrrrsssssssssstttttttttttuuuuuuuu
(PID.TID 0005.0001) //    709 mmmmmmmmmmmmmmmmmmmmmmmmmmmmmmmmmmmmmmmmmmmmmmmmmmmmmmmmmmmmmmmmmmmmmnnnnnnnnnnnnnoooooooooooooooooooooooppppppppppqqqqqqqqqqqqqqqqrrrrrrrrrrrrrrrrrrrrrrrrrrrrrrrrrrrrrrrrrrrrsssssssssssssssssssssssssssssssssrrrrrrrrrrrrrrrrrrrrrrrrrrrrrrrrrrrrrrrrrrrrrrrrrrrrrrrrrrrrrrrrrrrrrrrrrrrrrrrrrrrrrrrrrrrrrrrrrrrrrrrrrrrrrrrrrrrrrrrrrrrrsssssssssssssssssssssssssssssttt
(PID.TID 0005.0001) //    708 mmmmmmmmmmmmmmmmmmmmmmmmmmmmmmmmmmmmmmmmmmmmmmmmmmmmmmmmmmmmmmmmmmnnnnnnnnnnnnnnnnoooooooooooooooppppppppppppppppqqqqqqqqqrrrrrrrrrrrrrrrrrrrrrrrrrrrrrrrrrrrrrssssssssssssssssssssssssssssssssssssssssssssssssssssssssssssssssssssssssssssssssssssssssssssssssssssssssssssssssssssssssssssssssssssrrrrrrrrrrrrrrrrrrrrrrrrrrrrrrrsssssssssssssssssssssssssssssrrrrrrrrrssss
(PID.TID 0005.0001) //    707 mmmmmmmmmmmmmmmmmmmmmmmmmmmmmmmmmmmmmmmnnnnnnnnnnnnnnnnnnnnnnnnnnnnnnnnnnnnnnnnooooooooooppppppppppppppppppppppqqqqqqqqqrrrrrrrrrrrrrrrrrrrrrrrrrrrrsssssssssssssssssssttttttttttttttttttttttttttttttttttttttttttttttttttttttuuuuuuuuttttttttttttttttttttuuuuuuuuuuutuuuuuuuuuuuuutttttttttttssssssssssssssssssssssssssssssssssssssssssssttttttttttttttttssssssssrrrrrrrrrrr
(PID.TID 0005.0001) //    706 nnnnnnnnnnnnnnnnnnnnnnnnnnnnnnnnnoooooooooooooooooooooooooooooooooooooooooooooooooooooppppppqqqqqqqqqqqqppppppqqqqqqqqqrrrrrrrrrrrrrrrrrrrrrrrssssssssssssssssssttttttttttttttttttttttttttttttttttttttttttttttttttttttttuuuuuuuuuuuuuuuuuuuuuuuutuuuuuuvvvvvvvvvvvvvvvvvvvvvvuuvvuuuuuuuuuuuuttttttttttttttttttttttttttttttttttssssstttttttttttttttttttttttssssssssssssssssr
(PID.TID 0005.0001) //    705 oooooooooooppppppppppppppppppppppppppqqqqqqqqqqqqqqqqqqqqqqqqqqqppppppppppppppppppppppppqqqqqrrrrrqqqqqqqpppqqqqqqqqrrrrrrrrrrrrrrrrrrrrrrrssssssstttttttttttttttttttttttttuuuuuuuuuuuuuuuuuuuuuuuuuuuuuuuuuuuuuuuuuuuuuuuuuuuuuuuuuuuuuuuuuuuttttttttttuuuuuuuuuuuuuuuuuuuuuuuuuuuuuuuuuuuuuuutttttttttttttttttuuuuuuuuuuuuuuuuttttuuuuuuuuutttttttttttttttttssssssssssssss
(PID.TID 0005.0001) //    704 qqqqqqqqqrrrrrrrrrrrrrrrrrrrrrrrrrrrrrrrrrrrrrsssssrrrrrrrrrrrrrrrqqqqqqqqqqqqqqqqqqqqqqqrrrrrrrrrrrrrrqqqqqqqqqrrrrrrrrrrrrrrrrssssssssssssssssttttttttttttttttttttttuuuuuuuuuuuuuuuuvvvvvvvvvvvuuuuuuuuuuvvvvvvvvvvvvvvvvuuuuuuuuuuuuvuvvvvvvvuuuuuuuuuuuuuuuuuuuuuuuuuuuuuuuuuuuuuuuuuuuuuuuuuuuuuuuuuuuuuuuuuuuuuuuuuuuuuuuuuuuuuuuuuuuuuuuuuuuuuttttttttttttttttttttttt
(PID.TID 0005.0001) //    703 rrssssssttttttttsssssssssssssstttttttttttttssssssssssssssrssrrrrrrrrrrrrrrrrrrrrrrrrrrrrrrsssssssssssrrrrrrrrrrrrrrrrrsssssssssssssssssssssssssttttttttttttttttttttttuuuuuuuuuuuuuuvvvvvvvvvvvvvvvvvvvuuuuuuuuuuuuuuvvvvvvvvvvvvvvvvvvvvvvvvvvvvvvvvvvvvvvvvvuuuuuuuuuuuuuuuuuuuuuuuuuuuuuuuuuuvvvvvvvvvvvvvvvvvvvvvvvvvvvvvvvvvvuuvvvvvvvvvvvvuuuuuuuuuuuuuutttttttttttuuuu
(PID.TID 0005.0001) //    702 sssttttttttutttttttttttttttttttuuuuuuuutttttttttsssssssssssssssssssssssssssssssssssssssssssssssssssssssssssssssssssssssssssssssssssssssssssstttttttttttttttttttttttttuuuuuuuuuuuuuuuuuuuuuuuuuuuuuuuuuuuuutttttttuuuuuuuuuuuuuuuuuuuuuvvvvvvvvvvvvvvvvvvvvvvvvvvvvvvvvvvvvvvvvvvvvvvvvvvvvvvvvvvvvvvwwvvvvvvvvvvvvvvvvvvvvvvvvvvvvvvvvvvvvvvvvvvvvvvvuuuuuuuuuuuuuuuuuuuuuuu
(PID.TID 0005.0001) //    701 ssstttttttttttttttttttttttuuuuuuuuuuuuuuuuuuuttttttttttttttttttttttttttttttttttttttttttttttttsssssssssssssssssssssssssssssstttttttttttttttttttttttttttttttttttttttttttuuuuuuuuuuuuuuuuuuuuuttttttttttttttttttttttttttttttuuuuuuuuuuuuuuuuuuuuuuuvvvvvvvvvvvvvvvvvvvvvvvvvvvvvvvvvvvvvvvvvvvvvvvvvvvvvvvvvvvvvvvvvvvvvvvvvvvvvvvvvvvvvvvvvvvvvvvvvvvvvvuuuuuuuuuuuuuuuuuuuuuu
(PID.TID 0005.0001) //    700 ssssssssttttttttttttttttttttuuuuuuuuuuuuuuuuttttttttttttttttttttttttttttttttttttttttttttttttttttttttttttttssttttttttttttttttttttttttttttttttttttttttttttttttttttttttttttttttttttttttttsssssssssssssssssssssssssssssssssssssstttttttttttttttttttttuuuuuuuuuuuuuuuuuuuuuuvvvvvvvvvvvvvvvvvvvvvvvvvvvvvvvvvvvvvvvvvvvvvvvvvvvvuuuuuuuuvvvvvvvvvvvvvvvvvvvvuuuuuuuuuuuuuuuuuuuuu
(PID.TID 0005.0001) //    699 ssssssssssssssttttttttttttttttttttttttttttttttttttttttttttttttttttttttttttttttttttttuuuuuuuuuuuuuuuuttttttttttttttttttttttttttttttttttttstttttttttttttttttttttttttttttssssssssssssrrrrrrrrrrrrrrrrrrrrrrrrrrrrrrrrrrrrrrrrrsssssssssssssssssssssssssssttttttttttttttttuuuuuuuvvvvvvvvvvvvvvvvvvvvvvvvvvvvvvvvvvvvvvvvvvvvuuuuuuuuuuuvvvvvvvvvvvvvvvvvvvvvvvuuuuuuuuuuuuuuuuu
(PID.TID 0005.0001) //    698 ssssssssssssssssstttttttttttttttttttttttttttuuuuuuutttttttttttttttttttttttttttttttuuuuvvvvvvvvvvvvvuuuuuuuuutttttttttttttttttttttsssssssssssssssssssstttssssssssssssssrrrrrrrrrrrrrqqqqqqqqqqqqqqqqqpppppppppppqqqqqqqqqqrrrrrrrrrrrrrrrrrrrrrrrrrrrrrssssssssssssssstttttttuuuuuuuuuuuuuuuuuuuuuuuuuuuuuuuuuuuuuuuuuuuuuuuuuuuuuuvvvvvvvvvvvvvvvvvvvvvvvvuuuuuuuuuuuuuuuuuu
(PID.TID 0005.0001) //    697 rrsssssssssssssssssttttttttttttttttttttuuuuuuuuuuuuuuutttttttttttttttttttttttttttttuuuuvvvvvvvvvvvvuuuuuuutttssssssssssssssssssssssssrrrrrrssssssssssssssrrrrrrrrrrrrrrrrrrqqqqqqqqqqqpppppppppppppoooooooooooooooppppppppppppppppqqqqqqqqqqqqqqqqqqqrrrrrrrrrrrsssssssssssttttttuuuuuuuuuuuuuuuuuutttttttttttttttttttttttuuuuuuuuuuuvvvvvvuuuuuvvvvvvvvvvvvvvvvvvvvvvuuuuuu
(PID.TID 0005.0001) //    696 rrrssssssssssssssssssstttttttttttttttuuuuuuuuuutttsssssrrrrrssssssttttttttttssssssssstttttttttttttttttsssssrrrrrqqqqqqqqqrrrrssssrrrrrrrrrrrrrrrrrrrrrrrrrrrrrrrrrrrqqqqqqqqqqqqqppppppppoooooooooooonnnnnnnnnnnnnnooooooooooooooooooppppppppppppppqqqqqqqqrrrrrrrrrrrrrrsssssssssssssssttttttttttttssssssssssttttttttttttuuuuuuuuuuuuuuuuuuuuuvvvvvvvvvvvvvvvvvvvvvvvvvvvvv
(PID.TID 0005.0001) //    695 rrrsssssssssssssssssssssstttttttttssssssssrrrrrrrrrqqqpppppqqqqqrrrsssssssssssrrrrrrrrrrrrrrrrrrrrrrrrqqqqqqqqqqqqqqqqqqqqqrrrrrrrrrrqqqqqrrrrrrrrrqqqqqqqqqqqqqqqqqqqqqqqqqqqppppppooooooooooonnnnnnnnnnnnnnnnnnnnnnnnnnnnnnnnnnnnnnnooooooooopppppppppqqqqqqqqrrrrrrrrrrrrrrrrrrrrrsssssssssssssssssssssssssssssttttttttttttttttttuuuuuuuuuuuuuuuuvvvvvvvvvvvvvvvvvuuuuuuv
(PID.TID 0005.0001) //    694 rsssssssssssssssssssssssssssssssssrrrrqqqqppppppqqppppooooooooppppqqqrrrrrrrrrqqqqqqqqqpppppppppppppppppppppppppppppppppqqqqqqqqqqqqqqqqqqqqqqqqqqqqqqqqqqqqqqqqqqqqqqqqppppppppoooooooooonnnnnnnnnnnnnnnnnnnmmmmmmnnnnnnnnnnnnnnnnnnnnnnnnnnoooooooopppppppqqqqqqqqqqqrrrrrrrrrrrrrrssssrrrrrrrrrrrrrrrrrrrrssssssssssstttttttttttttttttuuuuuuuuuuuuuuuvvvvvvvvuuuuuuuuuuuu
(PID.TID 0005.0001) //    693 sssssssssssssssssssssssssssssssrrrqqqppppooooooooooooooooooooooooooooppppppqqqqqqqpppppppooooooooooooooooopppppppppppppppqqqqqqqqqqqqqqqqqqqqqqqqpppppppppppppppppppppppppppooooooooonnnnnnnnnnnnnnnnnnnnnnnnnmmmmmnnnnnnnnnnnnnnnnnnnnnnnnnnnnnnooooooooppppppqqqqqqqqqqqrrrssssssstsssssrrrrrrrrrrrrrrrrrrrrrssssssssssttttttttuuuuuuuuuuuuuuuuuuuuuvvvvvvvvvvvvvvvvvvvvvw
(PID.TID 0005.0001) //    692 ssssssssssssssssssssssssssssssrrrqqpppppoonnnnnnooooooooonnnnnnnnnnnnnnnnoooppppppppppooonnnnnnnnnnooooooooopppppppppppppppppppppppppppppppppppppppppppppppppppppppoooooooooooooonnnnnnnnnnnnnnnnnnnnnnnnnnnnnnnnnnnnnnnnnnnnnnnnnnnnnnnnnnnnnnnnnnnnoooooooopppppppqqqqqqqrrrrsssssssssrrrrrrrrrrrrrrrrrrrrrrrrssssssstttttuuuvvvwwxxxxxxxxxwwwwwwwwwxxxxxxxxxxxxxxxxxxxxxx
(PID.TID 0005.0001) //    691 ssssssssssssssssssssssssssssrrrqqqppppooonnnmmnnnnooooooonnnnnnnnnmmmmmmnnnoooooopppooonnnnmmmmmnnnnoooooooopppppqqpppppppppppppppppppppqqqqqqqpppppppppppppooooooooooooonnnnnnnnnnnnnnnnnnnnnnnnnnnnnnnnnnnnnnnnnnnnnnnnnnnnnnnnnnnnnnnnnnnnnnnnnnnnnnnnnooooooopppppppqqqqqrrrrssrrrrrrrrrrrrrrrrrrrrrrrrrrrrsssssttttuuuvvvwwxxyyyyyyyyyyyyyyyyyyyyyyyyyyyyyyyyzzzzzzzzzz
(PID.TID 0005.0001) //    690 ssssssssstttssssssssssssrrrrqqqppppppooonnmmmmnnnnoooooonnnnnnnmmmmmmmmmmnnnnnoooooooonnnnmmmmmmnnnnnooooooooppppqqqpppppppppppppppppppqqqqqqqqqppppppppoooooooooonnnnnnnnnnnnnnnnnnnnnnnnnnnnnnnnnnnnnnnoooooonnnnnnnnnnnnnnnnnnnnnnnnnnnnnnnnnnnnnnnnnnnnnnnnoooopppppppqqqqrrrrrrrrqqqrrrrrrrrrrrrrrrrrrrssssstttuuuvvwwwwwxxxyyyyyyyyyyyyyyzzzzzzzzzzzzzzzzzzzzzzzzzzzzz
(PID.TID 0005.0001) //    689 ssssssttttttssssssssrrrrrqqqppppppooooonnnmmmmnnnnoooonnnnnnnnmmmmmmmmmmmmnnnnnnnnnnnnnnnmmmmmmmmnnnnnnnooooooppppqqppppppppppppppppppppqqqqqqqpppppppooooooooonnnnnnnnnnnnnnnnnnnnnnnnnnnnnnnnnnnnnnnnoooooooooooooooonnnnnnnnnnnnnnnnnnnnnnnnnnnnnnnnnnnnnnnnnooopppppppqqqqqrrrrrrqqqrrrrrrrrsssssssssssssstttuuuvvwwwxxxxxyyyyyyyyyyyyyyyzzzzzzzzzzzzzzzzzzzzzzzzzzzzz++
(PID.TID 0005.0001) //    688 ssstttttttttssssssrrrrqqqppppoooooooooooonnnnnoooooooonnnnnnnnmmnnnnnnmmmmmmmmmmmmmnnnnnnnnmmnnnnnnnnnnnnnnnooooppppppppooooooooooooooppppppppppppppooooooooooonnnnnnnnnnnnnnnnnnnnnnnnnnnnnnnnnnnnnnnnoooooooooooooooooooooonnnnnnnnnnnnnnnnnnnnnnnnnnnnnnnoooooppppqqqqqqqqqqqqqqqqqrrrrrsssssssssssstttttuuuvvvvwwxxxxyyyyyyyyyyyyyyyyzzzzzzzzzzzzzzzzzzzzzzzzz++++......
(PID.TID 0005.0001) //    687 sttttttttttssssssrrrrqqqpppooooooooooooooooooooooooooooooonnnnnnnnnnnnnnnnnnnnnnnnnnnnnnnnnnnnnnnmmmmmnnnnnnnnnoooooooooooooooooooooooooooooooooooooooooooooonnnnnnnnnnnnnnnnnnnnnnnnnnnnnnnnnnnnnnnnnnnnooooooooooooooooppppppooooooooonnnnnnnnnnnnnnnnooooppppqqqqqqqqqqqrrrrrrrrrrrsssssstttttttuuuuuvvvvwwwwwwxxxxyyyyyyyyyzzyyyyyzzzzzzzzzzzzzzzzzzzzzzzzzzz+++.+++++..
(PID.TID 0005.0001) //    686 ttttttttttsssssssrrrrqqqpppooooooooooooooooooooooooooooooooooooonnnnnnnnnnnnnnnnnnnnnnnnnnnnnnnnnmmmmmmmmmmmmnnnnnnnnnnnnnnnooooonnnnnnnnnnnnnnnnnnnnnnnnnnnnnnnnnnnnnnnnnnnnnnnnnnnnnnnnnnnnnnnnnnnnnnnnnnoooonnnnnoooooppqqqrrqqqqppppoooonnnnnnnnnooopppqqqqqqrrrrrrrrrrrrsssssssttttttuuuuvvvvwwwwwwwxxxxxxyyyyyyyyyyyyyyyzzzzzzzzzzzzzzzzzzzzzzzzz++.++.+++++zzzzz+++..
(PID.TID 0005.0001) //    685 tttttttssssssssssrrrrqqqppppooooooooooooooooooooooooooooopppppoooooooooonnnnnnnnnnnnnnnnnnnnnnnnnnmmmmmmmmmmmmmmmnnnnnnnnnnnnnnnnnnnnnnmmmmmmmmnnnnnnnnnnnnnnnnnnnnnnnnnnnnnnnnnnnnnnnnnnnnnnnnnnnnnnnnnnnnnooonnnnooooooooppqrrrrrrrrrrrqqqqpppoooopppqqqqrrrrrrrrrrssssssssttttuuuuuvvvvwwwxxxxxxxyyyyyyyyyyyyyyyyyyyyyyyyyzzzzzzzzzzzzzzzzzzzzzzzz++++.........++zzzz+...
(PID.TID 0005.0001) //    684 uutttttssssssssssssrrrrqqpppppooooooooooooooooooooooooooppppppppppppppoooooooooooooooonnnnnmmmnnnnmmmmmmmmmmmmmmmmmmmnnnnnnnnnnnnnnnnnmmmmmmmmmmmnmmmnnnnnnnnnnnnnnnnnnnnnnnnnnnnnnnnnnnnnnnnnnnnnnnnnnnnnnnooooooooppppppppppqqrrrrssssssssrrrrrrqqqqrrrrrrsssssssssstttttuuuuvvvwwwwwxxxxxyyyyyyyyyyyyyyyyyyyyyyzzzzzzzzzzzzzzzzzzzzzzzzzzzzzzzzz+................++++zzzz
(PID.TID 0005.0001) //    683 uuuuuttttttttsssssssssrrrqqqpppppppppooooooooooooooooooopppppppppppppppppoooooooooooooonnnmmmmmmnnnmmmmmmmmmmmmmmmmmmmnnnnnnnnnnnnnnnnnnmmmmmmmnnnnnnnnnnnnnnnnnnnnnnnnnnnnnnnnnnnnnnnnnnnnnnnnnnnnnnnnnnnnnoooopppppppqqqqqqppqqqqrrrrsssssssstsssssssssssssstttttttuuuuvvvwwwwxxxxxxxyyyyyyyyyyyyyyyyyyyyyyyyyyyzzzzzzzzzzzzzzzzzzzzzzzzzzzzzzz+....++++............++++++
(PID.TID 0005.0001) //    682 vvvvvuuuuutttttttttsssssrrrqqqpppppppppooooooooooooooooooppppppqqqqqqqqqqppppppppoooooonnnmmmmmmmnnmmmmmmmmmmmmmmmmmmmmnnnnnnnnnnnnnnnnnnnnnnnnnnnnnnnnnnnnnnnnnnnnnnnnnnnnnnnnnnnnnnnnnnnnnnnnnnnnnnnnnnnnnnoopppqqqqqqqqqqqqqqqqqqqqrrrsssstttttttsssstttttttuuuuvvvvwwwwxxxxxyyyyyyyyyyyyyyyyyyyyyyyyyyyyyyyyyyyzzzzzzzzzzz+++++++zzzzzzzzzz+............................
(PID.TID 0005.0001) //    681 vvvvvvvvvuuttttttttttssssrrrqqqqqqpppppppppppoooooooooooppppppqqqqrrrrrrrrqqqqppppooooonnnmmmmmmmmmmmmmmmmmmmmmmmmmmmmmmnnnnnnnnnnnnnnnnnnnnnnnnnnnnnnnnnnnnnnnnnnnnnnnnnnnnnnnnnnnnnnnnnnnnnnnnnnnnnnnnnnnnnoooppqqqqqrrrrrrrrrrrqqqqrrrrrssstttttttttttttuuuuvvwwwwwxxxxxxyyyyyyyyyyyyyyyyyyyyyyyyyzzzzzyzzzzzzzzzzzzzyyzzzzz+++....zzzzzzz++..++++++.....................
(PID.TID 0005.0001) //    680 vvvvvvvvvuuuuuttttttttsssrrrrrrrrqqqppppppppppoooooooopppppqqqqqrrrrrrsrrrrqqqppppoooonnnnnnmmmmmnnnnnnnnnnmmmmmmmmmmmmmnnnnnnnnnnnnnnnnnnnnnnnnnnnnnnnnnnnnnnnnnnnnnnnnnnnnnnnnnnnnnnnnnnnnnnnnnnnnnnnnnnnnnnoooppqqqrrrrrrrrrrrrrrrrrrrrrrsssttttttttuuuuuuvvwwxxxxxxxyyyyyyyyyyyyyyyyyyyyyyyyyyyzzzzzzzzzzzzzzzzzzzzzzyyyyzzzz++++..zzzzzz+++............................
(PID.TID 0005.0001) //    679 vvvvvvvvvvuuuuuuutttttssssrrrrrrrrrqqqqppppppppppppppppqqqqqqqrrrrsssssssrrrqppppoooooooooooonnnnnnnoooooonnnnmmmmmmmmmmnnnnnnnnnnnnnnnnnnnnnnnnnnnnnnnnnnnnnnnnnnnnnnnnnnnnnnnnnnnnnnnnnnnnnnnnnnnnnnnnnnnnnnnnooppqqqrrrrrrrrsssrrrrrrrrrrrrsssttttuuuuvvvvvwwxxxxxxyyyyyyyyyyyyyyyyyyyyyyyyyyyyzzzzzzzzzzzzzzzzzzzyyyzyyyyyyyyyyyyzzzzzzzzzz+++++++......................
(PID.TID 0005.0001) //    678 vvvvvvvvvvuuuuuuuutttttsssssrrrrrsrrrrrqqqqppppppppppqqrrrrrrrrssssttttsssrrqpppppppppqqrrsssrrrrrrqqqppppoonnnnnnnnmmmmnnnnnnnnnnnnnnnnnnnnnnnnnnnnnnnnnnnnnnnnnnnnnnnnnnnnnnnnnnnnnnnnnnnnnnnnnnnnnnnnnooooonnnooopppqqqqqrrrrrrrrrrrrrrrrrrrsssttuuvvvvwwwwwxxyyyyyyyyyyyzzzzyyyyyyyyyyyyyyyyyyzzzzzzzz++++++...zzzzzzzyyzzzzyyyyyyyyyyzzzzzzzzzzz..++++++++.++++........
(PID.TID 0005.0001) //    677 vvvvvvvvvvuuuuvvvuuuttttttsssssssssssrrrqqqppppppqqqqrsstttttttttttuuuuttttssrrqrrrstuvvvwvvvuuuuttsrrqqpppoooooonnnnnnnnnnnnnnnnnnnnnnnnnnnnnnnnnnnnnnnnnnnnnnnnnnnnnnnnnnnnnnnnnnnnnnnnnnnnnnnnnnnnnoooooooooooooooopppppqqqrrrrrrrrrrrrrsssssstuuvwwwwxxxyyyyyyyyyyyyyyzzzzzzzzzzyzzzzzyyyyyyyyzzyyyzzz++...........+++zzzzzzzzzzzyyzzzzzzzzzyyyyyyzzzz++................
(PID.TID 0005.0001) //    676 vvvvvvvvvvvuuvvvvvvvuuttttttttsssssssrrrrqqqqqqqqrrrsttuuuvvvvvvvwwwwwwwwwwwwwvvvvvwwwwwwvuttssrqqppqqrrqqpppppqqpponnnnmnnnnnnnnnnnnnnnnnnnnnnnnnnnnnnnnnnnnnnnnnnnnnnnnnnnnnnnnnnnnnnnnnnnnnnnnoooooooooooooooooppppppppqqqrrrrrrrrssssstttuuvvwwxxyyyyyyyyyzzzzzzzyzzzzzzzzzzzzzzzzzzzzzzyyyyzzzzyyyyyzzzzz++++...........+++++zzzzzz++++++zzzzzzzzzzzz++................
(PID.TID 0005.0001) //    675 vvvvvvvvvvvvvvvvvvvvvuuttttttttssssssrrrrrrsstttuuvvwwwwwwwxxxxxyyyyyyyyyyyyyyyxxxxwwvvutsrrqqpppqrssttttsrqqqrsssrqponnmmmnnnnnnnnnnnnnnnnnnnnnnnnnnnnnnnnnnnnnnnnnnnnnnnnnnnnnnnnnnnnnnnnnnnnooooooooooooopppppppqqqqqqqrrrssstttttuuuuvvwwxxxyyyyyzyyyzzzzzzzzzzzzzzzzzz+++++++++.......zzzzzzzzzzzzyyyyzzz+++++++..............zzzzz++......+++++zzzzzzzz++++........+..
(PID.TID 0005.0001) //    674 vvvvvvvvvvvvvvvvvvvvuuutttttttttsssssssssstuuvwwxxyyyyyyyyyyyyyyyyyyyyyyyzzzyyyxxwvvuttsrrrrrrrsttuuvvvvutssstuuuutsqponnnmnnnnnnnnnnnnnnnnnnnnnnnnnnnnnnnnnnnnnnnnnnnnnnnnnnnnnnnnnnnnnnnnnnoooooooooooooopppppqqqqqqqrrrsssttuvvvvwwwxxyyyzzzzzzzzzzzzzzzzzzzzzzzzzzzzzz+++..+++..+++.....zzzzzzzzzzzzzzyyyzz.....+++...........++zzzzz+............zzzzyyzzzz...........+
(PID.TID 0005.0001) //    673 vvvvvvvvvwwwwwwwwwvvvuutttttttttttssssstttuvwxyyzzzzzzzzyyyyyyyzzzzzzzzyyzzyyxwvvuuttttttttttttuuuvvvvvvuuuuuvvvvutsrqpoonnnnnnnnnnnnnnnnnnnnnnnnnnnnnnnnnnnnnnnnnnnnnnnnnnnnnnnnnnnnnnnnnnnoooooooooooooopppppqqqqqrrrrssttuvvwwxxxyyyzzzzz+zzzzzzzzzzzzzzzzzzzzz+++++++zzz+++++++++++....zzzzzzzzzzzzzzzzzzzzyzzzzzzzzzzzz+++......zzzzz+++++......+++zzzzzzzzzzzzzzzzzzzz
(PID.TID 0005.0001) //    672 vvvvvvvvvwwxxxxxwwvvvuutttttttttttttttttttuvwxyyzzzzzzzyyyyyyzzzzzzzzzzyyxxvuuuuvvvvuuuuvvvvvvvvvvvvwwvvvvvvvwvvutssrqpponnnnnnnnnnnnnnnnnnnnnnnnnnnnnnnnnnnnnnnnnnnnnnnnnnnnnnnnnnnnnnnnnnoooooooooooooopppppqqqqrrrrssstuvvwxxyyyyzzzzzz++++zzzzzzzzzzzzzzzzzz+++++++....++.........++++zzzzzzyyyyzzzzz+zzzzzzzzzzzzzz....+++zz...zzzzzzz+++++++++++++++++zzzzzzzzzzzzzzzz
(PID.TID 0005.0001) //    671 vvvvvvvvvwwxxwwxwwwvvvuuuutttttttttttttttttuvwxyyyyyyyyyyyyyzzzzzzzzyyxxxwvvvvvvvvvvuuuuvvvvvvvvvvvwwwwwvvvvvvvutsrrqpoonnnnnnnnnnnnnnnnnnnnnnnnnnnnnnnnnnnnnnnnnnnnnnnnnnnnnnnnnnnnnnnnnooooooooooooooopppppqqqqrrrssttuvvwxxyyyyzzzzzzzz+++zzzzzzzzzzzzzzz++++++++++zzzzz++............zzzzyyyyyyyzzzzz++..zzzzzzzzzzzzzzzzzzzzzzzzzzzzzzzzzz++...........++zzzzzz+...+++z
(PID.TID 0005.0001) //    670 vvvvvvvvvvvvvwwwwwwvvvvuuvuutttttttssttttttuvwxxyyyyyxxxxyyyyyzzzzzyyyyyyxxwwvuuuututtuuvvvvvwwxxwwwwwwwvvvvvutsrqpoonnnnnnnnnnnnnnnnnnnnnnnnnnnnnnnnnnnnnnnnnnnnnnnnnnnnnnnnnnnnnnnnnnnoooooooooooooooopppppqqqrrssttuvvwxxyyyyzzzzzzzzzzzzzzzzzz+++++....++++....++zzzzzzzzzzzzzzzzzzzzzzyyyyyyzzzzzzzzz++...zzzzzzzzzzzzzzzzzzzzzzzzzzzzzzzzz+++++++++++zzzzzzzz+++.....+
(PID.TID 0005.0001) //    669 wwwvvvvvvuuuvvvvvvuuttttttttttttttssssssstttuvwwxxxxxwwwwwxxxxxxyyyyyyyyyxwwvuuttsstttuuvvwxxyyyxxxxxxwwvvuutsrponnnmmmmmmmmnnnnnnnnnnnnnnnnnnnnnnnnnnnnnnnnnnnnnnnnnnnnnnnnnnnnnnnnnnnnooooooooooooooppppppqqqqrrstuvvwwxxyyyyzzzzzzzzzzzzzzz+++++.............+++zzzzzzzzzzzzzzzzzzzzzyzzzzzzzzzzzzzzzzzzzzzz++zzzzzzzzzzzzzzzzzzzzzzzzzzzzz+++++++++++++zzzzzzzzz+++++++z
(PID.TID 0005.0001) //    668 wwwwwvvvvvuuvvuuuttttssssssstttssssssssssssttttuuuvvvvvvvwwwwwwxxxxxxxxxwwwvuutssssstttuuvvvwwxxxxxxxxwvuutrqonnnmmmmmmmmmmmmmnnnnnnnnnnnnnnnnnnnnnnnnnnnnnnnnnnnnnnnnnnnnnnnnnnnnnnnnnoooooooooooooopppqqqqqrrrsstuvwxxxyyyyyzzzzzzzzzzz++++++++................zzzz++....zzzzzzzzzzzzzzzz+++++zzzzzzzzzzzzzzzzzzzzzzzzzzzzzzzzzzzzzzzzzzzzz+++...........++++++++zzz++++++
(PID.TID 0005.0001) //    667 wwwwwwwwwwwvvvuutttttssssssssssssssssssssssssstttuuuuuvwwwwwwxxxxwwvvvvvvvvvuttssssssstttuuvvwwxxxxxxwvtsrponmmmmmmmmmmmmmmmmmnnnnnnnnnnnnnnnnnnnnnnnnnnnnnnnnnnnnnnnnnnnnnnnnnnnnnnnnooooooooooooooppqqqrrrsssttuuvwxxyyyyzzzzzzzzzzz+++++++...........++......zzzz+++++++++zzzzzzzzzzz+++....++zzzzzzzzzzzzz++.+++zzzzzz+..+++...+++...++zzzz+++++........++........++..++
(PID.TID 0005.0001) //    666 wxxxxxxxxxwwvvuutttttssssssssssssssssssssstttttuvvwwxxxyxxxxxyyyxwvvuuuuuvvvuttssssssssttuuvwwxxxwwvusqponmmmmmmnnnmmmmmmmmmmnnnnnnnnnnnnnnnnnnnnnnnnnnnnnnnnnnnnnnnnnnnnnnnnnnnnnnnnnoooooooooooppppqqrrsssttuuvvwwxxyyyzzzzzzzzzzz++++..........++...zz++..zzzz++......++++++zzzzzzzzz+.......++zzzzzzzzzzzz+++...+++zz+...++++.........++zzzzz++++++....+++............++
(PID.TID 0005.0001) //    665 yxxxxxxwwwwwvvuuttttttttttttttttttttttttuuuvvwwxxyyzzzzzzyyyyyyyywvuttttuuvvuuttsssttttuuvwwxxxwvutrponmmmmmmmnnnnnnmmmmmmmnnnnnnnnnnnnnnnnnnnnnnnnnnnnnnnnnnnnnnnnnnnnnnnnnnnnnnnnnnoooooooooopppqqqrrrsstuuvvwwxxyyyzzzzzzzzzzzzzz++++.....++....++zzz+++++++................++++zzzzzz++++...+++zzz+++++zzzz++.....+++++....+++.........++zzzz++++++++zzzz++.........++++
(PID.TID 0005.0001) //    664 zzyyyyxxwwwwwvvvuuuuuuuuuuuuuuuuvvvvuuuvwwxyyyyzzzzzzzzzzzyyyyyyxwvttttttuuuutttttttuvwxxxxxxxwvutqonmllllmmnnnnnnnnnnnnnnnnnnnnnnnnnnnnnnnnnnnnnnnnnnnnnnnnnnnnnnnnnnnnnnnnnnnnnnnnnooooooooopppqqrrsssttuvvwxxyyzzzzzzzzzzzzzzzzzzzzzzzzzz+++++++zz++...++z++++++..............++++zzzz+++.....++..++....++zzzzz++++.++..++..............++++++++++++.zzzzzz++++........++
(PID.TID 0005.0001) //    663 zzzzzyyxxxxxwwwwwwwwwwwwwwwwwxxxxxxxxyyxxyyyyzzzzzzzzzzzzyyyyyxxwvutsssttttttttttuvwwxxyyyxxwwvvusqommlllmmnnnnnnnnnnnnnnnnnnnnnnnnnnnnnnnnnnnnnnnnnnnnnnnnnnnnnnnnnnnnnnnnnnnnnnnnnnnoooooooopppqqrrsstuuvwxxyyzzzzzzzzzzzzzzzzzzzzzzzzzzzzzzzzzzzzz...++zz+....+++................+++++++++++............+++zz++++zz+....++++++++.........++++.++++...++zzzz++++.........+
(PID.TID 0005.0001) //    662 zzzzzzzyyyyyyyyyyyyyyyyyyyyyyyyyyyzzzzzzyyyzzzzzzzzzzzzzzyyyyyxwwvutttttttttssssttuvwxyyyxwvuuuutrpnmmlllmmnnnnnnnnnnnnnnnnnnmmmmmnnnnnnnnnnnnnnnnnnnnnnnnnnnnnnnnnnnnnnnnnnnnnnnnnnnnnoooooopppppqqrrstuvwxyyyzzzzzzzzzzzzzzzzzzyyyyyyyyyyyyyyyyzzzzzzzzzz+.............++...............................+++++...++zzzzzzzzz+++.........++++z++++.........zzz++............
(PID.TID 0005.0001) //    661 zzzzzzzzzzzzzzzzzzzzzzzzzzzzzzzzzzzzzzzzzzzzzzzzzzzzzzzzzyyyyyyxxwwvuuuuttttssssssttuwxxwvtsrsssrponmmmmmmmnnnnnnnnnnnnnnnmmmmmmmmmnnnnnnnnnnnnnnnnnnnnnnnnnnnnnnnnnnnnnnooooonnnnnnnnnnnooooppppqqrrsttuwxyyyzzzzzzzzzzzzzzzzzzzzzyyyyyyyyyyyyyzzzzzzzzzzzzzzz+++.++...++..+++++++++....................++zzz+...++zzzzzzzzzz+++........+++zz++...........zzzz+++..........
(PID.TID 0005.0001) //    660 zzzzzzzzzzzzzzzzzzzzzzzzzzzzzzzzzzzzzzzzzzzzzzzzzzzzzzzzzzzzzyyyyyxxwwwvvuutttsssstttuvvvusqpppponnmmmmmmmmmmnnnnnnnnnnmmmmmmmmmmmmmnnnnnnnnnnnnnnnnnnnnnnnnnnnnnnnnnnnooooooooooonnnnnnnooooppppqqrssttuvwxyyzzzzzzzzzzzzzzzzzzzzzzzyyyyyyyyyyzzzzzzzyyyyyyyzzzzzzzzzzzzz+z............++++++++++++++++++zzzzz++++zzzzzzzzzzz+++++++++++++zzzz++++........++zz+++..........
(PID.TID 0005.0001) //    659 zzzzzzzzzzzzzzzzzzzzzzzzzzzzzzzzzzzzzzzzzzzzzzzzzzzzzzzzzzzzzzzzzyyyyyyxxwwwvvutttttttsssrqpooonnmmmmmmmmmmmmmmmmmmmmmmmmmmmmmmmmmmmmnnnnnnnnnnnnnnnnnnnnnnnnnnnnnnoooooooooooooooooooooooooppppqqqrrsttuvwwxyyyzzzzzzzzzzzzzzzzzzzzzzzzzyzzzzzzzzzzzzzzzzyyyyyyyyyyzzzzz...........zzzzzzzzzzzzzzzzzzzzzzzzzzzzzzzzzzzzzzzzzz++++++++++++zzzzzzzz+.+++++++++zzzz++++z++++..
(PID.TID 0005.0001) //    658 ++zzzzzzzzzzzzzzzzzzzzzzzzzzzzzzzzzzzzzzzzzzzzzzzzzzzzzzzzzzzzzzzzzzzzyyyyyyxxwvuutsrqqppooonnnmmmmmmmmmmmmmmmmmmmmmmmmmmmmmmmmmmmmmmnnnnnnnnnnnnnnnnnnnnnnnnnooooooooooooooopppooooooooooppppqqqrrrsttuvvwwwxyyyzzzzzzzzzzz+++................zzzzzzzzzzzzzzzzzzyyyyyyzzzzzzzzzzzzzzzzzzzzzzzzzyzzzzzzzzzzzzzzzzzzzzzzzzzzzzzz+++++++++++z+zzzzzzzzzzz++++++zzzz+zzzz++++++
(PID.TID 0005.0001) //    657 ++++++++++++++++++zzzzzzzzzzzzzzzzzzzzzzzzzzzzzzzzzzzzzzzzzzzzzzzzzzzzzzzzzzyyxwvutsqpooonnnnmmmmmmmmmmmmmmmmmmmmmmmmmmmmmmmmmmmmmmmnnnnnnnnnnnnnnnnnnnnnnnnooooooooooooooooopppppppppppppppqqqqrrssttuuvwwwwxyzzzzzzzzzz+++++++.....................zz.......zzzzyyyyyyyyyyyzzyyyyyyyyyyyzzzzzzzzzzzzzzzzzzzzzzzzzzzzzzzzzzzzz++++++++++..zzzzzzzzzzzz........zz+zzzz++++zz
(PID.TID 0005.0001) //    656 +++++++++++++++++++++++++zzzzzzzzzzzzzzzz++++zzzzzzzzzzzzzzzzzzzzzzzzzzzzzzyxwvvtttrppoooonnnnnnmmmmmmmmmmmmmmmmmmmmmmmmmmmmmmmmmmmmmmmnnnnnnnnnnnnnnnnnnnnooooooooooooooooppppppppppppppppqqqqqrrrssttuuuvvxyyzzzzzzzzzz+++++++++...............................+zzzzzzzzzzzzzzzzzzzzzzzzzzzzzzzzzzz+++++zzzzzzzzzzzzzzz++z+++.++++++++++...+zzzzzz++..................+zzz
(PID.TID 0005.0001) //    655 +++++++++++++++++++++++++++++++++++++++++++++++++++++++++++++++++zzzzzzzzzzzzyxvuuttssrrqpppooonnnnnnnnmmmmmmmmmmmmmmmmmmmmmmmmmmmmmmnnnnnnnnnnnnnnnnnnoooooooooooooooooppppppppppppppqqqqqqqqqrrrrsstuuuuuwxyyzzzzzzzzz++++++++++..................................++zzzzzz++++zzzzzzz++zzz++++++.++++........++zzzzzzz+++++.++.............++zzzz+...................+zzzz
(PID.TID 0005.0001) //    654 +++++++++++++++++++++++++++++++++++++++++++++++++++++++++++++++++++++++++zzzzzzyxwvvuutsssssqpoooonnnnnnnmmmmmmmmmmmmmmmmmmmmmmmmnnnnnnnnnnnnnnnnnnnnooooooooooooooooppppppppppppqqqqqqqqqqqrrrrrrrsssttttuxyyzzzzzzzzzz++++++++..................................+++++.++++zzzzzzzzzzzzzzzzzzz++++++++++......++zzzzzzz+++++...+...........+++zzzz+.................+zzzzzz
(PID.TID 0005.0001) //    653 +++++++++++++++++++++++++++++++++++++++++++++++++++++++++++++++++++++++++++zzzzzzzzzzxxxxxwvttsrqpppoooonnnmmmmmmmmmmmmmmmmmmmnnnnnnnnnnnnnnnnnnnnoooooooooooooppppppppppqqqqqqqqqqqqqqqrrrrrrrrsssssstttuvxxyzzzzzzzzz++++++++..............................++++.........++++++zzzzzzzz+zzzzzzz+........++...++zzzzzzzz+++++++++.........++++.zzzz................+zzzzzzzz
(PID.TID 0005.0001) //    652 +++++++++++++++++++++++++++++++++++++++++++++++++++++++++++++++++++++++++++++++++++++zzzzzyxwvutssssrqpppoonnnnmmnnmmnnnnnnnnnnnnnnnnnnnnnnnnnooooooooooooopppppppppppqqqqqqqqqqqqqqrrrrrrrrssssssttttttuvwxyzzzzzzzz+++++++++..........................++++..............++......++++++...+++++++..........++++zzzzzzz.....++++.............+.+zzz...............zzzzzzzzzz
(PID.TID 0005.0001) //    651 ++++++++++++++++++++++++++++++++++++++++++++++++++++++++++++++++++++++++++++++++++++++++++zzyxwvvttttstsrpoopoooooonnnnnnnnnnnnnnnnnnnnnnnnooooooooooooooopppppppqqqqqqqqqqrrrrrrrrrrrrsssssstttttttuuuvvvxxyzzzzzz+++++++++++.......................++++..............+............++++++...++++++.........++++zzzzzzz++.......................+zzz+......+++++zzzzzzzzzz+.
(PID.TID 0005.0001) //    650 ++++++++++++++++++++++++++++++++++++++++++++++++++++++++++++++++++++++++++++++++++++++++++++zzzyzzyxwwwvttsssrpqqqqpppoonnnnnnnnnnnnnnnnooooooooooooooooppppppqqqqqqqqqrrrrrrrrrrrrrrrsssttttttuuuuvvvwwxxyyzzzzzzz+++++++++........................++++++........................++...........++++..........++++zzzzzzz+++....................++zzz+......++++zzzzzzzzzz+..
(PID.TID 0005.0001) //    649 ++++++++++++++++++++++++++++++++++++++++++++++++++++++++++++++++++++++++++++++++++++++++++++++zzz++zyyyyyywvutttsrrrrqpppooooonooonnnnnooooooooooooooopppppppqqqqqqqqqrrrrrrrsssssssssstttttuuuuvvvwwxxyyzzzzzzzzzzzzz+++++......................++++++......................................................++++++zzzzzzz++++++...............++zzz++...+++++++zzzzzzzzz+..
(PID.TID 0005.0001) //    648 ++++++++++++++++++++++++++++++++++++++++++++++++++++++++++++++++++++++++++++++++++++++++++++++++++++zzz+++++zzzxwutsssrrqqqqqqpppppppooooooooooooopppppppppqqqqqqqrrrrrrrrrrsssstttttttttuuuuuvvvvwwxxxyzzzzzzzzzzzzzzzzzzzzz++.................++++++...........................................+.............++++++zzzzzzz+++++++...........+++zzz+++.++++++++zzzzzzzz++..
(PID.TID 0005.0001) //    647 ++++++++++++++++++++++++++++++++++++++++++++++++++++++++++++++++++++++++++++++++++++++++++++++++++z+++++++++++++zyyxwwttsssssssssrsrqqppppppoooopppppppqqqqqqqqrrrrrrssssssttttttuuuuuuvwwwwwwwwwwwxxxyzzzzzzzzzzzzzzzzzzzzzzzzzz++.............+++++++++++.....................................................+++++++zzzzzzzzz+++++....+++++++zz+........+++++zzzzzzzz++..
(PID.TID 0005.0001) //    646 ..........+++++++++++++++++++++++++++++++++++++++++++++++++++++++++++++++++++++++++++++++++++++++++++++++++++++++++++zzzyyyxxwwwwttsssssssrrrrrrrrrqrqqqqqqrrrrrrsssssstttuuuuuuuvwwwwwwwwwxxxxxxyyyzzz++++++++++zzzzzzzyyzzzzzzzzzz......++++++++zzzzzzz+++++++................................................++++++++++zzzzzzzz+++++.+++zzzz++.++..........++zzzzzzzz+++.
(PID.TID 0005.0001) //    645 ..........+++++++++++++++++++++++++++++++++++++++++++++++++++++++++++++++++++++++++++++++++++......++.++++++++++++++++++++++++++++zyyyxwwwwwwwwwwwvuutttssssssssssstttttuuuuuvvwwwxxxyyyyyyzzz+z+++++++++++++++++++zzzzzzzzzzzzzzzzzz++zzzzzzzzzzzzzzzzz++.....................................................+++++++++++++++++++zzz+++zz++++++..............++zzzzzzzz++++
(PID.TID 0005.0001) //    644 ++++++++++++++++++++++++++++++++++++++++++++++++++++++++++++++++++++++++++++++++++++.+++++........+....+++.......++++++++++++++++++++++++++zzzzyyyyxxxxxwvvuttttuuuuuuuuuvvvvvwxxxyyzz+++++++++++++++++++++++++++++zzzzzzzzzzzzzzyyyyzyyyyzzzzzzzzzzzzzzz........................................................+++++++++++++++++++zzzzzz++++++..............++++zzzzzzz+++
(PID.TID 0005.0001) //    643 +++++++++++++++++++++++++++++++++++++++++++++++++++++++++++++++++++++++++++++++++.+............................+.++++++++++++++++++++++++++++++++++++++++zzyyyyxxxxxxxxxxwwwwxxxyz+++++++++++++++++++++++++++++++.++zzzzzzzzzzzzzzzyyyyyyyyyyzzzzzzzzzzzzzz+++++++++++++++++++......................................++.++++++++..+++zzzzzz++++++++...............++zzzzzzzz+
(PID.TID 0005.0001) //    642 +++++++++++++++++++++++++++++++++++++++++++++++++++++++++++++++++++++++++++++...................................................+..+++++++++++++++++++++++++++++++zyyyyyyzzzzz++++++++++++++++++++++++++++++++++++..++zzzzzzz+++zzzzzzyyyyyyyyyzzzzzzzzzzzzzzzzz++zzzz+++++++++++.++.....................................++++++++++zzzzzz+++++++..................+++zzzzzzz
(PID.TID 0005.0001) //    641 ++++++++++++++++++++++++++++++++++++++++++++++++++++++++++++++++++++++++...................................................................++++++.+..++++++++++++++++zzzzz++++++++++++++++++++++++++++......++++......+zzzzz+++.+++zzzzzzzzzzzzzzzzzyyyzzzzz+.................................................................+++++zzzzz++++++++...............+++++++++++++
(PID.TID 0005.0001) //    640 ++++++++++++++++++++++++++++++++++++++++++++++++++++++++++++++++++++++...................................................................................++++++++++++++zz+++++++++++++++++++++++++.........+.+.+......++++++++..++++++++++++zzzzzzzyyyyyzzzz+...........................................................++.+..++++++++++++.+++++++..............+++.++++++++
(PID.TID 0005.0001) //    639 +++++++++++++++++++++++++++++++++++++++++++++++++++++++++++++++++++++..............................................................................................++++++++++++++++.+++..+.+++......++++................+++++....+++++.........+zzzzzzzzyzzzzz+...........................................................++.++++++++++++....++++...++++.........+++.+++++++
(PID.TID 0005.0001) //    638 +++++++++++++++++++++++++++++++++++++++++++++++++++++++++++++++++++++..................................................................................................++++++++++++++....++......+++.......................++......................++++zzzzzzzzz++....................................+++............++..++++++++++++++++.......+++++++++............+.+.+++
(PID.TID 0005.0001) //    637 ++++++++++++++++++++++++++++++++++++++++++++++++++++++++++++++++++........................................................................................................+++++++.+......................................................................++++++++++z+++++++..........................+++++++++............++++++++++.............++++++++..............+++++
(PID.TID 0005.0001) //    636 ....+++++++++++++++++++++++++++++++++++++++++++++++++++++.........................................................................................................................++........++++......................................................................++++++...................+++++++++...++++++++..+.++++++++..++++++.+............+++..+............++.+.
(PID.TID 0005.0001) //    635 ......+++++++++++++++++++++++++++++++++++++++++++++++++++.....................................................................................................................................++........................................................................+++++........+.++++++++++........++.++++++++++++++++++++++++++++++++.....+++++++++++............++..
(PID.TID 0005.0001) //    634 .........+++++++++++++++++++++++++++++++++++++++++++++++.................................................................................................................................................................................................................++++++zzz++++++zzzzz++....+...+....++++++++++++++++++++++++++++++.......++++++++...................
(PID.TID 0005.0001) //    633 ..............++++++++++++++++++++++++++++++++++++++++++++++.........................................................................................................................................................................................................+++zz++++zzz+++zzz++++++++++++++..........+.+++++++++++++++++++++++.........++++++.....................
(PID.TID 0005.0001) //    632 ..................+++++++++++++++++++++++++++++++++++++++++++++......................................................................................................................................................................................................++++++++++z++z++++...++++++++.....................+++++++++.+++++.++++++....+++........................
(PID.TID 0005.0001) //    631 ....................+++++++++++++++++++++++++++++++++++++++++++++.............................................................................................................................................................................................................................+++++................................................++.......................
(PID.TID 0005.0001) //    630 ......................+++++++++++++++++++++++++++++++++++++++++++++..............................................................................................................................................................................................................................+++.............................................+..........................
(PID.TID 0005.0001) //    629 .....................+++....+++++++++++++++++++++++++++++++++++++++....++...........................................................................................................................................................................................................................+.......................................................................
(PID.TID 0005.0001) //    628 .......................+++........+++++++++++++++++++++++++++++++++++++..........................................................................................................................................................................................................................+++.............................................+..........................
(PID.TID 0005.0001) //    627 .....................................++++++++++++++++++++++++++...++++++++.....++...........................................................................................................................................................................................................................................................................................
(PID.TID 0005.0001) //    626 ...+++.................++..............+++++++++++++++++++........++++++++..................................................................................................................................................................................................................................................................................................
(PID.TID 0005.0001) //    625 ..+++++...................................+++++++++++++...........++..++.++.................................................................................................................................................................................................................................................................................................
(PID.TID 0005.0001) //    624 ..+++++................................++++++++++++......................................................................................................................................................................................................................................................................................................................+++
(PID.TID 0005.0001) //    623 ....++++....+++......................+++++++++++++..........................................................................................................................................................................................................................................................................................................................
(PID.TID 0005.0001) //    622 ...+++++++++++++++..............++++++++++++++++++++++......................................................................................................................................................................................................................................................................................................................
(PID.TID 0005.0001) //    621 ..+++++++++++++++++..............+++++++++++++++++++++......................................................................................................................................................................................................................................................................................................................
(PID.TID 0005.0001) //    620 ++++++++++++++++++++..........+++++++++++++++++++++++++++...................++..............................................................................................................................................................................................................................................................................................
(PID.TID 0005.0001) //    619 +++++++++++++++++++++++++......++++++++++++++++++++++++++...........++..+++++++.............................................................................................................................................................................................................................................................................................
(PID.TID 0005.0001) //    618 ++++++++++++++++++++++++++++..++++++++++++++++++++++++++++++++++++++++++++++++..............................................................................................................................................................................................................................................................................................
(PID.TID 0005.0001) //    617 ++++++++++++++++++++++++++++++++++++++++++++++++++++++++++++++++++++++++++++++..............................................................................................................................................................................................................................................................................................
(PID.TID 0005.0001) //    616 ++++++++++++++++++++++++++++++++++++++++++++++++++++++++++++++++++++++++++++++..............................................................................................................................................................................................................................................................................+.++..........++
(PID.TID 0005.0001) //    615 +++++++++++++++++++++++++++++++++++......++++++++++++++++++++++++++++++++++++...................................................................................................................................................................................................................................................................................+...++.+++++
(PID.TID 0005.0001) //    614 ++++++++++++++++++++++++++++++++++++++++.....+++++++++++++++++++++++++++...............................................................................................................................................................................................................................................................................................+++++
(PID.TID 0005.0001) //    613 ++++++++++++++++++++++++++++++++++++++++++.++++++++++++++++++++.....++.................................................................................................................................................................................................................................................................................................+++++
(PID.TID 0005.0001) //    612 ++++++++++++++++++++++++++++++++++++++++++++++++++++++++++++++....................................................................................................................................................................................................................................................................................................++++++++++
(PID.TID 0005.0001) //    611 ++++++++++++++++++++++++++++++++++++++++++++++++++++++++++++++....................................................................................................................................................................................................................................................................................................++++++++++
(PID.TID 0005.0001) //    610 +++++++++++++++++++++++++++++++++++++++++++++++++++++++++++++..................................................................................................................................................................................................................................................................................................+++++++++++++
(PID.TID 0005.0001) //    609 +++++++++++++++++++++++++++++++++++++++++++++++++++++++++++....................................................................................................................................................................................................................................................................................................+++++++++++++
(PID.TID 0005.0001) //    608 +++zzz+++zz+++++++++++++++++++++++++++++++++++++++++++++++..................................................................................................................................................................................................................................................................................................+++++++++++++++z
(PID.TID 0005.0001) //    607 zzzzzzzzzzz++++++++++++++++++++++++++++++++++++++++++++++..................................................................................................................................................................................................................................................................................................++++++++++++++++z
(PID.TID 0005.0001) //    606 zzz+zzzzzzz+++++++++++++++++++++++++++++++++++++++++++++++................................................................................................................................................................................................................................................................................................++++++++++++++++zz
(PID.TID 0005.0001) //    605 xzz+zzzzzzzz++++++++++++++++++++++++++++++++++++++++++++++++.........................................................+++.++........+...+.................................................................................................................................................................................................................+++++++++++++++++zz
(PID.TID 0005.0001) //    604 tvxyzzzzzzzz+++++++++++++++++++++++++++++++++++++++++++++++++++++++...............................................+............++++++++.+...............................................................................................................................................................................................................+++++++++++++++++zzz
(PID.TID 0005.0001) //    603 uwwxyzzzzzzz++++++++++++++++++++++++++++++++++++++++++++++++.....................................................++.............++.++++++.+............................................................................................................................................................................................................++++++++++++++++++zzz
(PID.TID 0005.0001) //    602 suvwxyzzzzzz++++++++++++++++++++++++++++++++++++++++++++.+++++.........++.......................................+++++............+.+++++++++++.........................................................................................................................................................................................................+++++++++++++++++zzzz
(PID.TID 0005.0001) //    601 twwwwwxxyzzzz++++++++++++++++++++++++++++++++++++++++.....++++++...............................................+++++........+...+.+++zz+++++++++++....++....+..........................................................................................................................................................................................+++++++++++++++++zzzz
(PID.TID 0005.0001) //    600 qtttrqswyzzzzz+++++++++++++++++++++++++++++++++++++++++++++++++++....++++...................................+++++++.......z++z+z+++++zz+++z++++++zzzzzzzzz+++.....++..................................................................................................................................................................................+++++++++++++++++++zzz
(PID.TID 0005.0001) //    599 opppoprvxyzzzz++++++++++++++++++++++++++++++++++++++++++++++++++++++++++++........................++++++...++++++++++..+.+zzzzzzzzz+zzz++zzz+zzzzyyzyyyyyzzz+zzz+z++...................................................................................................................................................................................++++++++++++++++++zzz
(PID.TID 0005.0001) //    598 ooooopptxyyzz+z+++++zzzzzz++++++++++++++++++++++++++++++++++++++++++++++++........................++.....+++++++++.....z++zzzzzzzzz++zzzzzxvttrqqrpqqtttwzzzzzz+z++++..................................................................................................................................................................................++++++++++++++++++zzz
(PID.TID 0005.0001) //    597 nnooooptyzzzz+z+++zzzzzzzzzz++++++++++++++++++++++++++++++++++++++++++++++++.............................+++++++++z+++++zzzzzzzzzzzzxvsstrmmkllmmmmmnooprttwyzzzzzz+++z+............z.................................................................................................................................................................++++++++++++++++++++++
(PID.TID 0005.0001) //    596 nnnooooptxyzzzzzzzz++zzzzzzzz++++++++++++++++++++++++++++++++++++++++++++++..+++++++..+.....................++++++zzzzzzzzzzzzzzzywttssspmlkllmmmmnnnnooppprrtyzzzzzzzzz++.....+....z+..................................................................................................................................................................++++++++++++++++++++
(PID.TID 0005.0001) //    595 nnnnnnnoptwvtxzzzzzzzyyy++zzzz+++++++++++++++++++++++++++++++++++++++++++++++++++++++.+++++++.............++++++++zzzzzzzzzzzzzzywtsssrmkjklllmmmnnnnnoooonoooqttyzzzzzzz+++.....+...++.................................................................................................................................................................+....+++++++++++++++
(PID.TID 0005.0001) //    594 nnnnnnnnopppppqqrrtwyxttx++zzzz+++++++++++++++++++++++++++++++++++++++++++++++++++++++++++++.............++++++...+zzzzzzzzzzz+zxvttrrnkjjkllmmmmnnnnnnoonnnnnopopqtyzzzzzzzz++...+++z+..+...................................................................................................................................................................+++++++++++++++
(PID.TID 0005.0001) //    593 nnnnnnnnnnoooppoppruustttzzzzzzz+++++++++++++++++++++++++++++++++++++++++++++++++++++++++++............++zz++..+++++++zzzzzzz+zxvutrpmjjjkkmmmmmmnnnnnmnnnnnnnnonoopqstyzzzz+zzz+..+.+z..++...................................................................................................................................................................++++++++++++++
(PID.TID 0005.0001) //    592 nnnnnnnnnnnoooooooqtqpqtwxyzzzzz+++++++++++++++++++++++++++++++++++++++++++++++++++++++++++..........+zzzz+...+.++++zzzz+zzzyxvtsrpmjjjjkkllmnmmmmmmmmmmnnnnnoooooopppppqqttyyyz+.....z..++....................................................................................................................................................................+++++++++++++
(PID.TID 0005.0001) //    591 mmnnnnnnnnnoonnooprtoopttyzzzzzz++++++++++++++++++++++++++++++++++++++++++++++++++++++++++.........+zzzz..+......++zzzz+zzywusppqnkijjjkkllmmmmmmmmmmmmmmnnnnooooooooopppqqsttux++.++.zz..+z+..................................................................................................................................................................+++++++++++++
(PID.TID 0005.0001) //    590 mmmnnnnnnnnnnnnoopqppopqswyzzzzz+++++++++++++++++++++++++++++++++++++++++++++++++++++++++.......+zzzzzz......+.+++zzzzzzyxvtrpomjiiijjkkllmmmmmmmmmmmmmmnnnnnooooooooopppqrrrrtvxz++..zz.++z+...................................................................................................................................................................++++++++++++
(PID.TID 0005.0001) //    589 mmmmnnnnnnnnnnnnnoooooopptwzz+z++++++++++++++++++++++++++++++++++++++++++++++++++++++++.........+zzzzzz++.+.++++++zzzyxwvtrppmjiijjkkkllmmmmmmmmmmmmmmnnnnnnnoooooooooppqqpqqrssvy+++.zzzz++++..................................................................................................................................................................++.......+++
(PID.TID 0005.0001) //    588 mmmmmnnnnnnnnnnnnnnnnooppsuwy+++++zzz+++++++++++++++++++++++++++++++++++++++++++++++++.+....+++++zzzzz+++.+++++zzzzzxvtsrpmmjmjjkkklllllmmmmmmmmmmmmnnnnnnnnnoooonooooopppqrrrsstwy++..++.+...+.............................................................................................................................................................................
(PID.TID 0005.0001) //    587 mmmmmmnnnnnnnnnnnnnnnnoopprqtxzzzzzzzzz++++++++++++++++++++++++++++++++++++++++++++......+++++++zzzzzz++.++++zzz++zvtpnmkihikkklllmmmmlmqnmmmnmmmmmmmnnnnnnnnnnnnnoooooppppqrrsssuxz++.++...................................................................................................................................................................................
(PID.TID 0005.0001) //    586 mmmmmmmmnnnnnnnnnnnnnnnooooopqtvttttxzzzzzzzzzzzzzzz+++++++++++++++++++++++++++++......++++++++zzzzzz++++++zzzzyytommihihhiijkklllmmmmmmnnnotwnnnnmmnoqrpnnnnnnnnnooooopppqqqrrsrsuxz+++z.zz++..............................................................................................................................................................................
(PID.TID 0005.0001) //    585 mmmmmmmmmnnnnnnnnnnnnnnnnoooooppppprssvxyzzzyxxxzzzzz+++++++++++++++++++++++++++........++++++++zzzzzzzzzzzzytrokjihhgghhhijkkkklllllllmmmnonnnnvtnmnnopnnnpnnnnnnooooppppqqqrrrrrswyzzzz+z+.+++.+..........................................................................................................................................................................
(PID.TID 0005.0001) //    584 mmmmmmmmmmnnnnnnnnnnnnnnnnooooooooppprrsvwututxzzz+zzz+++++++++++++++++++++..++++.++.++++++++zz+zzz+z+zzzxxwtpmihhghhhiijjjkkkkkllllllllmmmmnnnmnnmmnnnpopuonnnnnooooopppqqqqqqqqqqrwzz++z++...zz+z+.+......................................................................................................................................................................
(PID.TID 0005.0001) //    583 mmmmmmmmmmmnnnnnnnnnnnnnnnnnoooooooooppppqpqsuvyzzzzzzzz++++++++++++++++...++...++++++++++++z+zz+zzzyyyywtpmkhhhhiijjjjkkkkkkkkkllllllllllmllmmlmmmmnnnnpoonnnnnooooooppppqqqqqqqqqrtwzzzz++++.+++++..z.....................................................................................................................................................................
(PID.TID 0005.0001) //    582 mmmmmmmmmmmmnnnnnnnnnnnnnnnnnnnoooooooopqrrrsstuvyzzzzzzzzzz+++++++++++...+++++.++++++zz++++++zzzzzxvvttomihhhiijkkkkkkkllllllllllllllllllllmlllmmmmmnnnonnnnnooooooopppppppqqppqqqqruxzzz+++....zz++z+..++.................................................................................................................................................................
(PID.TID 0005.0001) //    581 mmmmmmmmmmmmmnnnnnnnnnnnnnnnnnnnnoooooopppqrrststvxzzzzzzzzzz++++++++...++++++++++++++zzzz+++zzxwvutqrnihhiijkkklllmmmmllmllllllllllllllllllmmlmmmmmnpnnnnnopnoovqoopppppppppppqqqqqrrsvxz++z+++.++++++..+..................................................................................................................................................................
(PID.TID 0005.0001) //    580 onmmmmmmmmmmmmnnnnnnnnnnnnnnnnnnnooooopprsrprsrsstvxyzzzzzzzz+++....++++++++++++++++++++z+zzywvttrpokihhijkklmpmmmmmonnppnmmmllllllllllllllllmmmmmmmmnpnmnnnnnnoopopppppppppppppqqqqqqstvzz+zz+++.zz+z..z+..................................................................................................................................................................
(PID.TID 0005.0001) //    579 vpnmmmmmmmmmmmnnnnnnnnnnnnnnnnnnnoooooprstsqrtuuuvwxyyyzzzzz++..++++++++++++++zz++++++zzxwvtttpmkkihgghijkkkklmmllllmmmpwpppppnnllllmmlllllllmmmmmmmmmmmmnnnnnnnooooopppppppppupppqqqqrrswyzzzzzzzzzzz.z+...................................................................................................................................................................
(PID.TID 0005.0001) //    578 zwtnnmmmmmmmmmmnnnnnnnnnnnnnnnnnnoooopqstttsqstuvvwwwwwxxyz++++++++++++++z++zzz+zzzywvvvrpppmiihggghhiijjjkkkkllkllllllnqpqqqqpqonllmmlllllllmmmmmmmmmmmmmmnnnnnnoooooopppppppqpqqqqqqqrruyzzzzzzzzzz+++....................................................................................................................................................................
(PID.TID 0005.0001) //    577 yzxtnnmmmmmmmmnnnnnnnnnnnnnnnnnnnoopqrsttttttsststttuvxyz+++.++++++++++zxzzzwttvvtrqspomiiffgghhhhijjjjjjjjkkkkkkkkkkklmmmootqqrppmmmmmmllllmmmmnnmmmmmmmmmmnnnnnnooooooooppuppppqqqqpqqqrvyz+.+++++++++++..................................................................................................................................................................
(PID.TID 0005.0001) //    576 vzyvsnnmmmmmnnnnnnnnnnnnnnnnnnnnooopprstssrsuuutuuvvx+...++++++++++zxwvttrrrpoppommjiffffgghhiiiijjjkkkkkkjjkkkkkkkkkkkkkkllmlnpqommlllmmllmmmmmnnnmmmmmmmmmmmnnnnnnooooooopppppqqqqqqqqqqswz+....++++++.+....++............................................................................................................................................................
(PID.TID 0005.0001) //    575 swyxzpnnnnnnnnnnnnnnnnnnnnnnnnnooppqpqrqrtttttuvxzzy++.++++zxyxwtttrrqppollkjiiffeefgghhiiiijjjjjjkkkkkkkkkkkkkkkkklkkkkkkklllllmmmmlllllllmmmmotpnmmmmmmmmmmnnnnnnnnoooooooooopprtppqqqqqqsvz....+++++++++..+..............................................................................................................................................................
(PID.TID 0005.0001) //    574 quxxwpnnnnnnnnnnnnnnnnnnnnnnooopqrtqrsrstsvvuwxz.++.+++zzywtppppoommmlkjifedcddefghhiiiijjjjjkkkkkkkkllkkkkkkkkkkkklkkkkkkkkkkllllllllllllllmmmmnmmmmmmmmmmmnnnnnnnnnnoooooooooooopytpqqqqqqtyz.+.+++++++++..++.............................................................................................................................................................
(PID.TID 0005.0001) //    573 rtxytpnnnnnnnnnnnnnnnnnnnnppprqqsussuvtvxzzzxxz+++++zywtsrommnnmlkkjfedccdefiihiiiijjjjjjjjkkkkkkkkklllkkkkkkkkkkkkkkkkkkkkkkkkkkkllllllllllllmmmnmnnmmmmmmmmnnnnnnnnnnnooooooooooppppqqtqqqqsxy...++++zzz++++..............................................................................................................................................................
[...]
    46 |UVELMASS|     -2 |      3 |   1 |       0 |       0 |
    47 |VVELMASS|     -3 |      2 |   1 |       0 |       0 |
    23 |ETAN    |      4 |      0 |   1 |       0 |
    24 |ETANSQ  |      5 |      0 |   1 |       0 |
    25 |DETADT2 |      6 |      0 |   1 |       0 |
------------------------------------------------------------------------
Global & Regional Statistics diagnostics: Number of lists:     1
------------------------------------------------------------------------
listId=   1 ; file name: dynStDiag
 nFlds, nActive,       freq     &     phase        |                    
    5  |    5  |     -7200.000000         0.000000 |
 Regions:   0
 diag# | name   |   ipt  |  iMate |    Volume   |   mate-Vol. |         
    23 |ETAN    |      1 |      0 | 0.00000E+00 |
    24 |ETANSQ  |      2 |      0 | 0.00000E+00 |
    25 |DETADT2 |      3 |      0 | 0.00000E+00 |
    30 |UVEL    |      4 |      0 | 0.00000E+00 |
    31 |VVEL    |      5 |      0 | 0.00000E+00 |
------------------------------------------------------------------------
(PID.TID 0005.0001) // =======================================================
(PID.TID 0005.0001) // Model current state
(PID.TID 0005.0001) // =======================================================
(PID.TID 0005.0001) 
(PID.TID 0005.0001) SOLVE_FOR_PRESSURE: putPmEinXvector =    F
 cg2d: Sum(rhs),rhsMax =  -2.25791876329922E+01  1.14495937863696E-01
(PID.TID 0005.0001)      cg2d_init_res =   5.57595043933257E+00
(PID.TID 0005.0001)      cg2d_iters(min,last) =      -1     150
(PID.TID 0005.0001)      cg2d_last_res =   9.77527241485838E-11
 Compute Stats, Diag. #    23 "ETAN    " (list#  1) Parms "SM      M1      ", vol(  0 )= 3.638E+14
 Compute Stats, Diag. #    24 "ETANSQ  " (list#  1) Parms "SM P    M1      ", vol(  0 )= 3.638E+14
 Compute Stats, Diag. #    25 "DETADT2 " (list#  1) Parms "SM      M1      ", vol(  0 )= 3.638E+14
 Compute Stats, Diag. #    30 "UVEL    " (list#  1) Parms "UUR     MR      ", vol(  0 )= 1.312E+18
 Compute Stats, Diag. #    31 "VVEL    " (list#  1) Parms "VVR     MR      ", vol(  0 )= 1.307E+18
 cg2d: Sum(rhs),rhsMax =  -1.13347835681965E+02  2.28078926137901E-02
(PID.TID 0005.0001)      cg2d_init_res =   2.61704976326131E+01
(PID.TID 0005.0001)      cg2d_iters(min,last) =      -1     161
(PID.TID 0005.0001)      cg2d_last_res =   9.75641154209793E-11
 cg2d: Sum(rhs),rhsMax =  -1.68539403722215E+02  1.53389961465672E-02
(PID.TID 0005.0001)      cg2d_init_res =   5.78743115320957E+00
(PID.TID 0005.0001)      cg2d_iters(min,last) =      -1     162
(PID.TID 0005.0001)      cg2d_last_res =   8.70908513980654E-11
 cg2d: Sum(rhs),rhsMax =  -1.79193524892269E+02  1.44270015660108E-02
(PID.TID 0005.0001)      cg2d_init_res =   2.22298772893337E+00
(PID.TID 0005.0001)      cg2d_iters(min,last) =      -1     158
(PID.TID 0005.0001)      cg2d_last_res =   9.31586527048822E-11
 cg2d: Sum(rhs),rhsMax =  -1.75735974963064E+02  1.47108482755629E-02
(PID.TID 0005.0001)      cg2d_init_res =   1.25762142163851E+00
(PID.TID 0005.0001)      cg2d_iters(min,last) =      -1     155
(PID.TID 0005.0001)      cg2d_last_res =   9.27097437350873E-11
 cg2d: Sum(rhs),rhsMax =  -1.71103509042002E+02  1.51091306000345E-02
(PID.TID 0005.0001)      cg2d_init_res =   8.71193060495200E-01
(PID.TID 0005.0001)      cg2d_iters(min,last) =      -1     155
(PID.TID 0005.0001)      cg2d_last_res =   8.67950680877768E-11
 cg2d: Sum(rhs),rhsMax =  -1.68495303008664E+02  1.53430108618924E-02
(PID.TID 0005.0001)      cg2d_init_res =   6.26757047482732E-01
(PID.TID 0005.0001)      cg2d_iters(min,last) =      -1     154
(PID.TID 0005.0001)      cg2d_last_res =   8.54152745220329E-11
 cg2d: Sum(rhs),rhsMax =  -1.67453109838588E+02  1.54385025559199E-02
(PID.TID 0005.0001)      cg2d_init_res =   4.75148745523207E-01
(PID.TID 0005.0001)      cg2d_iters(min,last) =      -1     152
(PID.TID 0005.0001)      cg2d_last_res =   9.30160196696174E-11
 cg2d: Sum(rhs),rhsMax =  -1.67035955761563E+02  1.54770585318174E-02
(PID.TID 0005.0001)      cg2d_init_res =   3.87725735721705E-01
(PID.TID 0005.0001)      cg2d_iters(min,last) =      -1     151
(PID.TID 0005.0001)      cg2d_last_res =   9.32264585591224E-11
 Compute Stats, Diag. #    23 "ETAN    " (list#  1) Parms "SM      M1      ", vol(  0 )= 3.638E+14
 Compute Stats, Diag. #    24 "ETANSQ  " (list#  1) Parms "SM P    M1      ", vol(  0 )= 3.638E+14
 Compute Stats, Diag. #    25 "DETADT2 " (list#  1) Parms "SM      M1      ", vol(  0 )= 3.638E+14
 Compute Stats, Diag. #    30 "UVEL    " (list#  1) Parms "UUR     MR      ", vol(  0 )= 1.312E+18
 Compute Stats, Diag. #    31 "VVEL    " (list#  1) Parms "VVR     MR      ", vol(  0 )= 1.307E+18
 cg2d: Sum(rhs),rhsMax =  -1.66686007201603E+02  1.55095518072673E-02
(PID.TID 0005.0001)      cg2d_init_res =   3.31198892665601E-01
(PID.TID 0005.0001)      cg2d_iters(min,last) =      -1     150
(PID.TID 0005.0001)      cg2d_last_res =   9.27230669226344E-11
 cg2d: Sum(rhs),rhsMax =  -1.66226705984064E+02  1.55524062691082E-02
(PID.TID 0005.0001)      cg2d_init_res =   2.88820893317685E-01
(PID.TID 0005.0001)      cg2d_iters(min,last) =      -1     149
(PID.TID 0005.0001)      cg2d_last_res =   9.18700606864258E-11
 cg2d: Sum(rhs),rhsMax =  -1.65672443052099E+02  1.56044373862874E-02
(PID.TID 0005.0001)      cg2d_init_res =   2.55273789258615E-01
(PID.TID 0005.0001)      cg2d_iters(min,last) =      -1     151
(PID.TID 0005.0001)      cg2d_last_res =   8.94240043875620E-11
 cg2d: Sum(rhs),rhsMax =  -1.65081649567260E+02  1.56602824784984E-02
(PID.TID 0005.0001)      cg2d_init_res =   2.29550406167163E-01
(PID.TID 0005.0001)      cg2d_iters(min,last) =      -1     151
(PID.TID 0005.0001)      cg2d_last_res =   8.72880067235639E-11
 cg2d: Sum(rhs),rhsMax =  -1.64493806377813E+02  1.57162468372941E-02
(PID.TID 0005.0001)      cg2d_init_res =   2.11478334665285E-01
(PID.TID 0005.0001)      cg2d_iters(min,last) =      -1     152
(PID.TID 0005.0001)      cg2d_last_res =   9.38963073343035E-11
 cg2d: Sum(rhs),rhsMax =  -1.63921029557040E+02  1.57711629265981E-02
(PID.TID 0005.0001)      cg2d_init_res =   1.99790519993687E-01
(PID.TID 0005.0001)      cg2d_iters(min,last) =      -1     344
(PID.TID 0005.0001)      cg2d_last_res =   9.90593302757657E-11
 cg2d: Sum(rhs),rhsMax =  -1.63359154858556E+02  1.58254079269582E-02
(PID.TID 0005.0001)      cg2d_init_res =   1.91758320834221E-01
(PID.TID 0005.0001)      cg2d_iters(min,last) =      -1    1015
(PID.TID 0005.0001)      cg2d_last_res =   9.97230421969551E-11
 cg2d: Sum(rhs),rhsMax =  -1.62799066688953E+02  1.58798531024693E-02
(PID.TID 0005.0001)      cg2d_init_res =   1.84577412541394E-01
(PID.TID 0005.0001)      cg2d_iters(min,last) =      -1    1058
(PID.TID 0005.0001)      cg2d_last_res =   9.93690931095078E-11
 Compute Stats, Diag. #    23 "ETAN    " (list#  1) Parms "SM      M1      ", vol(  0 )= 3.638E+14
 Compute Stats, Diag. #    24 "ETANSQ  " (list#  1) Parms "SM P    M1      ", vol(  0 )= 3.638E+14
 Compute Stats, Diag. #    25 "DETADT2 " (list#  1) Parms "SM      M1      ", vol(  0 )= 3.638E+14
 Compute Stats, Diag. #    30 "UVEL    " (list#  1) Parms "UUR     MR      ", vol(  0 )= 1.312E+18
 Compute Stats, Diag. #    31 "VVEL    " (list#  1) Parms "VVR     MR      ", vol(  0 )= 1.307E+18
 cg2d: Sum(rhs),rhsMax =  -1.62232861202834E+02  1.59352750427521E-02
(PID.TID 0005.0001)      cg2d_init_res =   1.76749087239882E-01
(PID.TID 0005.0001)      cg2d_iters(min,last) =      -1    1085
(PID.TID 0005.0001)      cg2d_last_res =   9.98702670936855E-11
 cg2d: Sum(rhs),rhsMax =  -1.61655812568468E+02  1.59921578022122E-02
(PID.TID 0005.0001)      cg2d_init_res =   1.68228699918603E-01
(PID.TID 0005.0001)      cg2d_iters(min,last) =      -1    1041
(PID.TID 0005.0001)      cg2d_last_res =   9.97588805457050E-11
 cg2d: Sum(rhs),rhsMax =  -1.61066338755840E+02  1.60506862216492E-02
(PID.TID 0005.0001)      cg2d_init_res =   1.59815659601339E-01
(PID.TID 0005.0001)      cg2d_iters(min,last) =      -1    1083
(PID.TID 0005.0001)      cg2d_last_res =   9.88348523710851E-11
 cg2d: Sum(rhs),rhsMax =  -1.60465386869400E+02  1.61107969430431E-02
(PID.TID 0005.0001)      cg2d_init_res =   1.52457335945902E-01
(PID.TID 0005.0001)      cg2d_iters(min,last) =      -1    1009
(PID.TID 0005.0001)      cg2d_last_res =   9.98637360942160E-11
 cg2d: Sum(rhs),rhsMax =  -1.59855726660764E+02  1.61722405461647E-02
(PID.TID 0005.0001)      cg2d_init_res =   1.46710426792109E-01
(PID.TID 0005.0001)      cg2d_iters(min,last) =      -1    1080
(PID.TID 0005.0001)      cg2d_last_res =   9.96344333560174E-11
 cg2d: Sum(rhs),rhsMax =  -1.59241176995250E+02  1.62346530779338E-02
(PID.TID 0005.0001)      cg2d_init_res =   1.42509559807618E-01
(PID.TID 0005.0001)      cg2d_iters(min,last) =      -1    1023
(PID.TID 0005.0001)      cg2d_last_res =   9.99455703203675E-11
 Computing Diagnostic #    48 "WVELMASS" (list#  1) Parms "WM      LR      ", Count=       1
 Post-Processing Diag #    49 "PhiVEL  " (list#  1) Parms "SMR P   MR      "
   from diag: UVELMASS (#    46) Cnt=       1 and diag: VVELMASS (#    47) Cnt=       1
 diag_cg2d (it=       22) a2dNorm,x2dNorm= 5.134525E-07 , 3.399538E-02 ; Criter= 1.00E-10
 diag_cg2d : k=   1 , it=  4997  5000 ; ini,min,last_Res= 4.0133062E+01 2.7405189E-05 2.7523375E-05
  get Post-Proc. Diag #     50  PsiVEL   from previous computation of Diag #     49
 Computing Diagnostic #    46 "UVELMASS" (list#  2) Parms "UUr     MR      ", Count=       1
             Vector  Mate for "UVELMASS" :  Diagnostic #     47 "VVELMASS" exists
 Computing Diagnostic #    47 "VVELMASS" (list#  2) Parms "VVr     MR      ", Count=       1
             Vector  Mate for "VVELMASS" :  Diagnostic #     46 "UVELMASS" exists
 Computing Diagnostic #    23 "ETAN    " (list#  2) Parms "SM      M1      ", Count=       1
 Computing Diagnostic #    24 "ETANSQ  " (list#  2) Parms "SM P    M1      ", Count=       1
 Computing Diagnostic #    25 "DETADT2 " (list#  2) Parms "SM      M1      ", Count=       1
 cg2d: Sum(rhs),rhsMax =  -1.58625749292528E+02  1.62976394171174E-02
(PID.TID 0005.0001)      cg2d_init_res =   1.39330219847622E-01
(PID.TID 0005.0001)      cg2d_iters(min,last) =      -1    1092
(PID.TID 0005.0001)      cg2d_last_res =   9.87330665110372E-11
(PID.TID 0005.0001) %CHECKPOINT        24 ckptA
(PID.TID 0005.0001)   Seconds in section "ALL                    [THE_MODEL_MAIN]":
(PID.TID 0005.0001)           User time:   296.40286670252681
(PID.TID 0005.0001)         System time:   5.1640319162979722
(PID.TID 0005.0001)     Wall clock time:   482.80554294586182
(PID.TID 0005.0001)          No. starts:           1
(PID.TID 0005.0001)           No. stops:           1
(PID.TID 0005.0001)   Seconds in section "INITIALISE_FIXED       [THE_MODEL_MAIN]":
(PID.TID 0005.0001)           User time:  0.63351200520992279
(PID.TID 0005.0001)         System time:   3.9043999277055264E-002
(PID.TID 0005.0001)     Wall clock time:   1.8037989139556885
(PID.TID 0005.0001)          No. starts:           1
(PID.TID 0005.0001)           No. stops:           1
(PID.TID 0005.0001)   Seconds in section "THE_MAIN_LOOP          [THE_MODEL_MAIN]":
(PID.TID 0005.0001)           User time:   295.76933968067169
(PID.TID 0005.0001)         System time:   5.1249639615416527
(PID.TID 0005.0001)     Wall clock time:   481.00168991088867
(PID.TID 0005.0001)          No. starts:           1
(PID.TID 0005.0001)           No. stops:           1
(PID.TID 0005.0001)   Seconds in section "INITIALISE_VARIA    [THE_MAIN_LOOP]":
(PID.TID 0005.0001)           User time:  0.39929991960525513
(PID.TID 0005.0001)         System time:   5.0189003348350525E-002
(PID.TID 0005.0001)     Wall clock time:   1.2928898334503174
(PID.TID 0005.0001)          No. starts:           1
(PID.TID 0005.0001)           No. stops:           1
(PID.TID 0005.0001)   Seconds in section "MAIN LOOP           [THE_MAIN_LOOP]":
(PID.TID 0005.0001)           User time:   295.37002575397491
(PID.TID 0005.0001)         System time:   5.0747629627585411
(PID.TID 0005.0001)     Wall clock time:   479.70877099037170
(PID.TID 0005.0001)          No. starts:           1
(PID.TID 0005.0001)           No. stops:           1
(PID.TID 0005.0001)   Seconds in section "MAIN_DO_LOOP        [THE_MAIN_LOOP]":
(PID.TID 0005.0001)           User time:   295.36987698078156
(PID.TID 0005.0001)         System time:   5.0747527852654457
(PID.TID 0005.0001)     Wall clock time:   479.70857596397400
(PID.TID 0005.0001)          No. starts:          24
(PID.TID 0005.0001)           No. stops:          24
(PID.TID 0005.0001)   Seconds in section "FORWARD_STEP        [MAIN_DO_LOOP]":
(PID.TID 0005.0001)           User time:   295.36950278282166
(PID.TID 0005.0001)         System time:   5.0747324600815773
(PID.TID 0005.0001)     Wall clock time:   479.70821404457092
(PID.TID 0005.0001)          No. starts:          24
(PID.TID 0005.0001)           No. stops:          24
(PID.TID 0005.0001)   Seconds in section "DO_STATEVARS_DIAGS  [FORWARD_STEP]":
(PID.TID 0005.0001)           User time:   2.3944854736328125E-002
(PID.TID 0005.0001)         System time:   9.3981698155403137E-003
(PID.TID 0005.0001)     Wall clock time:   5.6631088256835938E-002
(PID.TID 0005.0001)          No. starts:          48
(PID.TID 0005.0001)           No. stops:          48
(PID.TID 0005.0001)   Seconds in section "LOAD_FIELDS_DRIVER  [FORWARD_STEP]":
(PID.TID 0005.0001)           User time:   3.0131340026855469E-003
(PID.TID 0005.0001)         System time:   1.6177110373973846E-002
(PID.TID 0005.0001)     Wall clock time:   7.0238351821899414E-002
(PID.TID 0005.0001)          No. starts:          24
(PID.TID 0005.0001)           No. stops:          24
(PID.TID 0005.0001)   Seconds in section "EXTERNAL_FLDS_LOAD [LOAD_FLDS_DRIVER]":
(PID.TID 0005.0001)           User time:   2.1612644195556641E-004
(PID.TID 0005.0001)         System time:   7.2635710239410400E-005
(PID.TID 0005.0001)     Wall clock time:   4.6348571777343750E-004
(PID.TID 0005.0001)          No. starts:          24
(PID.TID 0005.0001)           No. stops:          24
(PID.TID 0005.0001)   Seconds in section "DO_ATMOSPHERIC_PHYS [FORWARD_STEP]":
(PID.TID 0005.0001)           User time:   1.8799304962158203E-004
(PID.TID 0005.0001)         System time:   1.7777085304260254E-005
(PID.TID 0005.0001)     Wall clock time:   3.0732154846191406E-004
(PID.TID 0005.0001)          No. starts:          24
(PID.TID 0005.0001)           No. stops:          24
(PID.TID 0005.0001)   Seconds in section "DO_OCEANIC_PHYS     [FORWARD_STEP]":
(PID.TID 0005.0001)           User time:   3.0472517013549805E-002
(PID.TID 0005.0001)         System time:  0.22625650465488434
(PID.TID 0005.0001)     Wall clock time:   1.0699152946472168
(PID.TID 0005.0001)          No. starts:          24
(PID.TID 0005.0001)           No. stops:          24
(PID.TID 0005.0001)   Seconds in section "THERMODYNAMICS      [FORWARD_STEP]":
(PID.TID 0005.0001)           User time:   1.1837124824523926E-002
(PID.TID 0005.0001)         System time:  0.11730106920003891
(PID.TID 0005.0001)     Wall clock time:  0.57281541824340820
(PID.TID 0005.0001)          No. starts:          24
(PID.TID 0005.0001)           No. stops:          24
(PID.TID 0005.0001)   Seconds in section "DYNAMICS            [FORWARD_STEP]":
(PID.TID 0005.0001)           User time:  0.31111180782318115
(PID.TID 0005.0001)         System time:   1.3085415288805962
(PID.TID 0005.0001)     Wall clock time:   7.2083635330200195
(PID.TID 0005.0001)          No. starts:          24
(PID.TID 0005.0001)           No. stops:          24
(PID.TID 0005.0001)   Seconds in section "SOLVE_FOR_PRESSURE  [FORWARD_STEP]":
(PID.TID 0005.0001)           User time:   203.99532485008240
(PID.TID 0005.0001)         System time:   1.8726383745670319
(PID.TID 0005.0001)     Wall clock time:   318.67634868621826
(PID.TID 0005.0001)          No. starts:          24
(PID.TID 0005.0001)           No. stops:          24
(PID.TID 0005.0001)   Seconds in section "MOM_CORRECTION_STEP [FORWARD_STEP]":
(PID.TID 0005.0001)           User time:   3.6648035049438477E-002
(PID.TID 0005.0001)         System time:  0.17716394364833832
(PID.TID 0005.0001)     Wall clock time:  0.50709915161132812
(PID.TID 0005.0001)          No. starts:          24
(PID.TID 0005.0001)           No. stops:          24
(PID.TID 0005.0001)   Seconds in section "INTEGR_CONTINUITY   [FORWARD_STEP]":
(PID.TID 0005.0001)           User time:  0.29534411430358887
(PID.TID 0005.0001)         System time:  0.32093280553817749
(PID.TID 0005.0001)     Wall clock time:   1.7078089714050293
(PID.TID 0005.0001)          No. starts:          24
(PID.TID 0005.0001)           No. stops:          24
(PID.TID 0005.0001)   Seconds in section "TRC_CORRECTION_STEP [FORWARD_STEP]":
(PID.TID 0005.0001)           User time:   1.5139579772949219E-004
(PID.TID 0005.0001)         System time:   6.8545341491699219E-006
(PID.TID 0005.0001)     Wall clock time:   1.8572807312011719E-004
(PID.TID 0005.0001)          No. starts:          24
(PID.TID 0005.0001)           No. stops:          24
(PID.TID 0005.0001)   Seconds in section "BLOCKING_EXCHANGES  [FORWARD_STEP]":
(PID.TID 0005.0001)           User time:  0.40788149833679199
(PID.TID 0005.0001)         System time:   3.7249073386192322E-002
(PID.TID 0005.0001)     Wall clock time:  0.72467684745788574
(PID.TID 0005.0001)          No. starts:          24
(PID.TID 0005.0001)           No. stops:          24
(PID.TID 0005.0001)   Seconds in section "MONITOR             [FORWARD_STEP]":
(PID.TID 0005.0001)           User time:   2.3945522308349609
(PID.TID 0005.0001)         System time:  0.16649118065834045
(PID.TID 0005.0001)     Wall clock time:   4.0220520496368408
(PID.TID 0005.0001)          No. starts:          24
(PID.TID 0005.0001)           No. stops:          24
(PID.TID 0005.0001)   Seconds in section "DO_THE_MODEL_IO     [FORWARD_STEP]":
(PID.TID 0005.0001)           User time:   87.756084918975830
(PID.TID 0005.0001)         System time:  0.81928791105747223
(PID.TID 0005.0001)     Wall clock time:   144.94452261924744
(PID.TID 0005.0001)          No. starts:          24
(PID.TID 0005.0001)           No. stops:          24
(PID.TID 0005.0001)   Seconds in section "DO_WRITE_PICKUP     [FORWARD_STEP]":
(PID.TID 0005.0001)           User time:  0.10014629364013672
(PID.TID 0005.0001)         System time:   2.2380352020263672E-003
(PID.TID 0005.0001)     Wall clock time:  0.14236187934875488
(PID.TID 0005.0001)          No. starts:          24
(PID.TID 0005.0001)           No. stops:          24
(PID.TID 0005.0001) // ======================================================
(PID.TID 0005.0001) // Tile <-> Tile communication statistics
(PID.TID 0005.0001) // ======================================================
(PID.TID 0005.0001) // o Tile number: 000007
(PID.TID 0005.0001) //         No. X exchanges =              0
(PID.TID 0005.0001) //            Max. X spins =              0
(PID.TID 0005.0001) //            Min. X spins =     1000000000
(PID.TID 0005.0001) //          Total. X spins =              0
(PID.TID 0005.0001) //            Avg. X spins =       0.00E+00
(PID.TID 0005.0001) //         No. Y exchanges =              0
(PID.TID 0005.0001) //            Max. Y spins =              0
(PID.TID 0005.0001) //            Min. Y spins =     1000000000
(PID.TID 0005.0001) //          Total. Y spins =              0
(PID.TID 0005.0001) //            Avg. Y spins =       0.00E+00
(PID.TID 0005.0001) // o Thread number: 000001
(PID.TID 0005.0001) //            No. barriers =         105438
(PID.TID 0005.0001) //      Max. barrier spins =              1
(PID.TID 0005.0001) //      Min. barrier spins =              1
(PID.TID 0005.0001) //     Total barrier spins =         105438
(PID.TID 0005.0001) //      Avg. barrier spins =       1.00E+00
PROGRAM MAIN: Execution ended Normally
