(PID.TID 0006.0001) 
(PID.TID 0006.0001) // ======================================================
(PID.TID 0006.0001) //                      MITgcm UV
(PID.TID 0006.0001) //                      =========
(PID.TID 0006.0001) // ======================================================
(PID.TID 0006.0001) // execution environment starting up...
(PID.TID 0006.0001) 
(PID.TID 0006.0001) // MITgcmUV version:  checkpoint69m
(PID.TID 0006.0001) // Build user:        hodahashemi
(PID.TID 0006.0001) // Build host:        Hodas-MacBook-Pro.local
(PID.TID 0006.0001) // Build date:        Wed May 13 09:19:31 EEST 2026
(PID.TID 0006.0001) 
(PID.TID 0006.0001) // =======================================================
(PID.TID 0006.0001) // Execution Environment parameter file "eedata"
(PID.TID 0006.0001) // =======================================================
(PID.TID 0006.0001) ># Example "eedata" file
(PID.TID 0006.0001) ># Lines beginning "#" are comments
(PID.TID 0006.0001) ># nTx - No. threads per process in X
(PID.TID 0006.0001) ># nTy - No. threads per process in Y
(PID.TID 0006.0001) > &EEPARMS
(PID.TID 0006.0001) > /
(PID.TID 0006.0001) ># Note: Some systems use & as the
(PID.TID 0006.0001) ># namelist terminator. Other systems
(PID.TID 0006.0001) ># use a / character (as shown here).
(PID.TID 0006.0001) 
(PID.TID 0006.0001) // =======================================================
(PID.TID 0006.0001) // Computational Grid Specification ( see files "SIZE.h" )
(PID.TID 0006.0001) //                                  ( and "eedata"       )
(PID.TID 0006.0001) // =======================================================
(PID.TID 0006.0001)      nPx =    4 ; /* No. processes in X */
(PID.TID 0006.0001)      nPy =    2 ; /* No. processes in Y */
(PID.TID 0006.0001)      nSx =    1 ; /* No. tiles in X per process */
(PID.TID 0006.0001)      nSy =    1 ; /* No. tiles in Y per process */
(PID.TID 0006.0001)      sNx =  360 ; /* Tile size in X */
(PID.TID 0006.0001)      sNy =  360 ; /* Tile size in Y */
(PID.TID 0006.0001)      OLx =    2 ; /* Tile overlap distance in X */
(PID.TID 0006.0001)      OLy =    2 ; /* Tile overlap distance in Y */
(PID.TID 0006.0001)      nTx =    1 ; /* No. threads in X per process */
(PID.TID 0006.0001)      nTy =    1 ; /* No. threads in Y per process */
(PID.TID 0006.0001)       Nr =    1 ; /* No. levels in the vertical   */
(PID.TID 0006.0001)       Nx = 1440 ; /* Total domain size in X ( = nPx*nSx*sNx ) */
(PID.TID 0006.0001)       Ny =  720 ; /* Total domain size in Y ( = nPy*nSy*sNy ) */
(PID.TID 0006.0001)   nTiles =    1 ; /* Total no. tiles per process ( = nSx*nSy ) */
(PID.TID 0006.0001)   nProcs =    8 ; /* Total no. processes ( = nPx*nPy ) */
(PID.TID 0006.0001) nThreads =    1 ; /* Total no. threads per process ( = nTx*nTy ) */
(PID.TID 0006.0001) usingMPI =    T ; /* Flag used to control whether MPI is in use */
(PID.TID 0006.0001)                   /*  note: To execute a program with MPI calls */
(PID.TID 0006.0001)                   /*  it must be launched appropriately e.g     */
(PID.TID 0006.0001)                   /*  "mpirun -np 64 ......"                    */
(PID.TID 0006.0001) useCoupler=   F ; /* Flag used to control communications with   */
(PID.TID 0006.0001)                   /*  other model components, through a coupler */
(PID.TID 0006.0001) useNest2W_parent =    F ;/* Control 2-W Nesting comm */
(PID.TID 0006.0001) useNest2W_child  =    F ;/* Control 2-W Nesting comm */
(PID.TID 0006.0001) debugMode =    F ; /* print debug msg. (sequence of S/R calls)  */
(PID.TID 0006.0001) printMapIncludesZeros=    F ; /* print zeros in Std.Output maps */
(PID.TID 0006.0001) maxLengthPrt1D=   65 /* maxLength of 1D array printed to StdOut */
(PID.TID 0006.0001) 
(PID.TID 0006.0001) ======= Starting MPI parallel Run =========
(PID.TID 0006.0001)  My Processor Name (len: 23 ) = Hodas-MacBook-Pro.local
(PID.TID 0006.0001)  Located at (  3,  0) on processor grid (0:  3,0:  1)
(PID.TID 0006.0001)  Origin at  (  1081,     1) on global grid (1:  1440,1:   720)
(PID.TID 0006.0001)  North neighbor = processor 0007
(PID.TID 0006.0001)  South neighbor = processor 0007
(PID.TID 0006.0001)   East neighbor = processor 0000
(PID.TID 0006.0001)   West neighbor = processor 0004
(PID.TID 0006.0001) // ======================================================
(PID.TID 0006.0001) // Mapping of tiles to threads
(PID.TID 0006.0001) // ======================================================
(PID.TID 0006.0001) // -o- Thread   1, tiles (   1:   1,   1:   1)
(PID.TID 0006.0001) 
(PID.TID 0006.0001) // ======================================================
(PID.TID 0006.0001) // Tile <-> Tile connectvity table
(PID.TID 0006.0001) // ======================================================
(PID.TID 0006.0001) // Tile number: 000004 (process no. = 000006)
(PID.TID 0006.0001) //        WEST: Tile = 000003, Process = 000004, Comm = messages
(PID.TID 0006.0001) //                bi = 000001, bj = 000001
(PID.TID 0006.0001) //        EAST: Tile = 000001, Process = 000000, Comm = messages
(PID.TID 0006.0001) //                bi = 000001, bj = 000001
(PID.TID 0006.0001) //       SOUTH: Tile = 000008, Process = 000007, Comm = messages
(PID.TID 0006.0001) //                bi = 000001, bj = 000001
(PID.TID 0006.0001) //       NORTH: Tile = 000008, Process = 000007, Comm = messages
(PID.TID 0006.0001) //                bi = 000001, bj = 000001
(PID.TID 0006.0001) 
(PID.TID 0006.0001)  INI_PARMS: opening model parameter file "data"
(PID.TID 0006.0001)  OPEN_COPY_DATA_FILE: opening file data
(PID.TID 0006.0001) // =======================================================
(PID.TID 0006.0001) // Parameter file "data"
(PID.TID 0006.0001) // =======================================================
(PID.TID 0006.0001) ># ===============================================================
(PID.TID 0006.0001) ># Vortex Sphere MITgcm Reference Case (MITgcm native solve)
(PID.TID 0006.0001) ># One-layer, global lat-lon, linearized barotropic dynamics.
(PID.TID 0006.0001) ># ===============================================================
(PID.TID 0006.0001) >
(PID.TID 0006.0001) ># Continuous equation parameters
(PID.TID 0006.0001) >&PARM01
(PID.TID 0006.0001) ># Planet / fluid
(PID.TID 0006.0001) > omega = 7.292E-5,
(PID.TID 0006.0001) > gravity = 9.81,
(PID.TID 0006.0001) > rhoConst = 1000.,
(PID.TID 0006.0001) > buoyancyRelation = 'OCEANIC',
(PID.TID 0006.0001) > eosType = 'LINEAR',
(PID.TID 0006.0001) >
(PID.TID 0006.0001) ># Dynamics switches
(PID.TID 0006.0001) > rigidLid = .FALSE.,
(PID.TID 0006.0001) > implicitFreeSurface = .TRUE.,
(PID.TID 0006.0001) > exactConserv = .TRUE.,
(PID.TID 0006.0001) > momStepping = .TRUE.,
(PID.TID 0006.0001) > momAdvection = .FALSE.,
(PID.TID 0006.0001) > useCoriolis = .TRUE.,
(PID.TID 0006.0001) > tempStepping = .FALSE.,
(PID.TID 0006.0001) > saltStepping = .FALSE.,
(PID.TID 0006.0001) >
(PID.TID 0006.0001) ># Viscosity / diffusion (set to zero to stay close to inviscid linear regime)
(PID.TID 0006.0001) > viscAh = 0.,
(PID.TID 0006.0001) > viscA4 = 0.,
(PID.TID 0006.0001) > diffKhT = 0.,
(PID.TID 0006.0001) > no_slip_sides = .FALSE.,
(PID.TID 0006.0001) > no_slip_bottom = .FALSE.,
(PID.TID 0006.0001) > hFacMin = 1.E-5,
(PID.TID 0006.0001) > hFacMinDr = 0.5,
(PID.TID 0006.0001) >
(PID.TID 0006.0001) ># I/O precision
(PID.TID 0006.0001) > readBinaryPrec = 32,
(PID.TID 0006.0001) > writeBinaryPrec = 64,
(PID.TID 0006.0001) > useSingleCpuIO = .TRUE.,
(PID.TID 0006.0001) >/
(PID.TID 0006.0001) >
(PID.TID 0006.0001) ># Elliptic solver parameters
(PID.TID 0006.0001) >&PARM02
(PID.TID 0006.0001) > cg2dMaxIters = 5000,
(PID.TID 0006.0001) > cg2dTargetResidual = 1.E-10,
(PID.TID 0006.0001) > cg2dPreCondFreq = 1,
(PID.TID 0006.0001) >/
(PID.TID 0006.0001) >
(PID.TID 0006.0001) ># Time stepping parameters
(PID.TID 0006.0001) >&PARM03
(PID.TID 0006.0001) > nIter0=0,
(PID.TID 0006.0001) > nTimeSteps=24 ,
(PID.TID 0006.0001) > abEps=0.1,
(PID.TID 0006.0001) > deltaT=900.,
(PID.TID 0006.0001) > cAdjFreq=0.,
(PID.TID 0006.0001) > pChkptFreq=0.,
(PID.TID 0006.0001) > chkptFreq=0.,
(PID.TID 0006.0001) > dumpFreq=10800.,
(PID.TID 0006.0001) > monitorSelect=1,
(PID.TID 0006.0001) > monitorFreq=1.,
(PID.TID 0006.0001) >/
(PID.TID 0006.0001) >
(PID.TID 0006.0001) ># Grid parameters
(PID.TID 0006.0001) >&PARM04
(PID.TID 0006.0001) > usingSphericalPolarGrid = .TRUE.,
(PID.TID 0006.0001) > delX = 1440*0.25,
(PID.TID 0006.0001) > delY = 720*0.25,
(PID.TID 0006.0001) > xgOrigin = 0.,
(PID.TID 0006.0001) > ygOrigin = -90.,
(PID.TID 0006.0001) > rSphere = 6371000.,
(PID.TID 0006.0001) > delR = 11000.,
(PID.TID 0006.0001) >/
(PID.TID 0006.0001) >
(PID.TID 0006.0001) ># Input datasets
(PID.TID 0006.0001) >&PARM05
(PID.TID 0006.0001) > bathyFile = 'bathymetry.bin',
(PID.TID 0006.0001) > pSurfInitFile = 'eta_init.bin',
(PID.TID 0006.0001) > uVelInitFile  = 'u_init.bin'
(PID.TID 0006.0001) > vVelInitFile  = 'v_init.bin'
(PID.TID 0006.0001) >/
(PID.TID 0006.0001) >
(PID.TID 0006.0001) 
(PID.TID 0006.0001)  INI_PARMS ; starts to read PARM01
(PID.TID 0006.0001)  INI_PARMS ; read PARM01 : OK
(PID.TID 0006.0001)  INI_PARMS ; starts to read PARM02
(PID.TID 0006.0001)  INI_PARMS ; read PARM02 : OK
(PID.TID 0006.0001)  INI_PARMS ; starts to read PARM03
(PID.TID 0006.0001)  INI_PARMS ; read PARM03 : OK
(PID.TID 0006.0001)  INI_PARMS ; starts to read PARM04
(PID.TID 0006.0001)  INI_PARMS ; read PARM04 : OK
(PID.TID 0006.0001)  INI_PARMS ; starts to read PARM05
(PID.TID 0006.0001)  INI_PARMS ; read PARM05 : OK
(PID.TID 0006.0001)  INI_PARMS: finished reading file "data"
(PID.TID 0006.0001)  PACKAGES_BOOT: opening data.pkg
(PID.TID 0006.0001)  OPEN_COPY_DATA_FILE: opening file data.pkg
(PID.TID 0006.0001) // =======================================================
(PID.TID 0006.0001) // Parameter file "data.pkg"
(PID.TID 0006.0001) // =======================================================
(PID.TID 0006.0001) ># Packages
(PID.TID 0006.0001) > &PACKAGES
(PID.TID 0006.0001) > useDiagnostics=.TRUE.,
(PID.TID 0006.0001) > /
(PID.TID 0006.0001) 
(PID.TID 0006.0001)  PACKAGES_BOOT: finished reading data.pkg
(PID.TID 0006.0001)  PACKAGES_BOOT: On/Off package Summary
 --------  pkgs with a standard "usePKG" On/Off switch in "data.pkg":  --------
 pkg/diagnostics          compiled   and   used ( useDiagnostics           = T )
 pkg/mypackage            compiled but not used ( useMYPACKAGE             = F )
 -------- pkgs without standard "usePKG" On/Off switch in "data.pkg":  --------
 pkg/generic_advdiff      compiled but not used ( useGAD                   = F )
 pkg/mom_common           compiled   and   used ( momStepping              = T )
 pkg/mom_vecinv           compiled but not used ( +vectorInvariantMomentum = F )
 pkg/mom_fluxform         compiled   and   used ( & not vectorInvariantMom = T )
 pkg/monitor              compiled   and   used ( monitorFreq > 0.         = T )
 pkg/debug                compiled but not used ( debugMode                = F )
 pkg/rw                   compiled   and   used
 pkg/mdsio                compiled   and   used
(PID.TID 0006.0001)  PACKAGES_BOOT: End of package Summary
(PID.TID 0006.0001) 
(PID.TID 0006.0001)  DIAGNOSTICS_READPARMS: opening data.diagnostics
(PID.TID 0006.0001)  OPEN_COPY_DATA_FILE: opening file data.diagnostics
(PID.TID 0006.0001) // =======================================================
(PID.TID 0006.0001) // Parameter file "data.diagnostics"
(PID.TID 0006.0001) // =======================================================
(PID.TID 0006.0001) ># Diagnostic Package Choices
(PID.TID 0006.0001) >#--------------------
(PID.TID 0006.0001) >#  dumpAtLast (logical): always write output at the end of simulation (default=F)
(PID.TID 0006.0001) >#  diag_mnc   (logical): write to NetCDF files (default=useMNC)
(PID.TID 0006.0001) >#--for each output-stream:
(PID.TID 0006.0001) >#  fileName(n) : prefix of the output file name (max 80c long) for outp.stream n
(PID.TID 0006.0001) >#  frequency(n):< 0 : write snap-shot output every |frequency| seconds
(PID.TID 0006.0001) >#               > 0 : write time-average output every frequency seconds
(PID.TID 0006.0001) >#  timePhase(n)     : write at time = timePhase + multiple of |frequency|
(PID.TID 0006.0001) >#    averagingFreq  : frequency (in s) for periodic averaging interval
(PID.TID 0006.0001) >#    averagingPhase : phase     (in s) for periodic averaging interval
(PID.TID 0006.0001) >#    repeatCycle    : number of averaging intervals in 1 cycle
(PID.TID 0006.0001) >#  levels(:,n) : list of levels to write to file (Notes: declared as REAL)
(PID.TID 0006.0001) >#                when this entry is missing, select all common levels of this list
(PID.TID 0006.0001) >#  fields(:,n) : list of selected diagnostics fields (8.c) in outp.stream n
(PID.TID 0006.0001) >#                (see "available_diagnostics.log" file for the full list of diags)
(PID.TID 0006.0001) >#  missing_value(n) : missing value for real-type fields in output file "n"
(PID.TID 0006.0001) >#  fileFlags(n)     : specific code (8c string) for output file "n"
(PID.TID 0006.0001) >#--------------------
(PID.TID 0006.0001) > &DIAGNOSTICS_LIST
(PID.TID 0006.0001) ># diag_mnc     = .FALSE.,
(PID.TID 0006.0001) ># useMissingValue=.TRUE.,
(PID.TID 0006.0001) >  xPsi0 = 135.,
(PID.TID 0006.0001) >  yPsi0 =  0.,
(PID.TID 0006.0001) >#--
(PID.TID 0006.0001) >  fields(1:5,3) = 'UVELMASS','VVELMASS',
(PID.TID 0006.0001) >                  'ETAN    ','ETANSQ  ','DETADT2 ',
(PID.TID 0006.0001) >   fileName(3) = 'dynDiag',
(PID.TID 0006.0001) >  frequency(3) = -21600.,
(PID.TID 0006.0001) >  timePhase(3) = -1800.,
(PID.TID 0006.0001) >
(PID.TID 0006.0001) >  fields(1:3,2) = 'WVELMASS','PhiVEL  ','PsiVEL  ',
(PID.TID 0006.0001) >   fileName(2) = 'dyn_Aux',
(PID.TID 0006.0001) ># fileFlags(2) = 'D       ',
(PID.TID 0006.0001) >  frequency(2) = -21600.,
(PID.TID 0006.0001) >  timePhase(2) = -1800.,
(PID.TID 0006.0001) > /
(PID.TID 0006.0001) >
(PID.TID 0006.0001) >#--------------------
(PID.TID 0006.0001) ># Parameter for Diagnostics of per level statistics:
(PID.TID 0006.0001) >#--------------------
(PID.TID 0006.0001) >#  diagSt_mnc (logical): write stat-diags to NetCDF files (default=diag_mnc)
(PID.TID 0006.0001) >#  diagSt_regMaskFile : file containing the region-mask to read-in
(PID.TID 0006.0001) >#  nSetRegMskFile   : number of region-mask sets within the region-mask file
(PID.TID 0006.0001) >#  set_regMask(i)   : region-mask set-index that identifies the region "i"
(PID.TID 0006.0001) >#  val_regMask(i)   : region "i" identifier value in the region mask
(PID.TID 0006.0001) >#--for each output-stream:
(PID.TID 0006.0001) >#  stat_fName(n) : prefix of the output file name (max 80c long) for outp.stream n
(PID.TID 0006.0001) >#  stat_freq(n):< 0 : write snap-shot output every |stat_freq| seconds
(PID.TID 0006.0001) >#               > 0 : write time-average output every stat_freq seconds
(PID.TID 0006.0001) >#  stat_phase(n)    : write at time = stat_phase + multiple of |stat_freq|
(PID.TID 0006.0001) >#  stat_region(:,n) : list of "regions" (default: 1 region only=global)
(PID.TID 0006.0001) >#  stat_fields(:,n) : list of selected diagnostics fields (8.c) in outp.stream n
(PID.TID 0006.0001) >#                (see "available_diagnostics.log" file for the full list of diags)
(PID.TID 0006.0001) >#--------------------
(PID.TID 0006.0001) > &DIAG_STATIS_PARMS
(PID.TID 0006.0001) ># diagSt_mnc    = .TRUE.,
(PID.TID 0006.0001) > stat_fields(1:5,1)  = 'ETAN    ','ETANSQ  ','DETADT2 ',
(PID.TID 0006.0001) >                       'UVEL    ','VVEL    ',
(PID.TID 0006.0001) >  stat_fName(1) = 'dynStDiag',
(PID.TID 0006.0001) >   stat_freq(1) = -7200.,
(PID.TID 0006.0001) >  stat_phase(1) = 0.,
(PID.TID 0006.0001) > /
(PID.TID 0006.0001) >
(PID.TID 0006.0001) 
(PID.TID 0006.0001) S/R DIAGNOSTICS_READPARMS, read namelist "diagnostics_list": start
(PID.TID 0006.0001) S/R DIAGNOSTICS_READPARMS, read namelist "diagnostics_list": OK
(PID.TID 0006.0001) S/R DIAGNOSTICS_READPARMS, read namelist "DIAG_STATIS_PARMS": start
(PID.TID 0006.0001) S/R DIAGNOSTICS_READPARMS, read namelist "DIAG_STATIS_PARMS": OK
(PID.TID 0006.0001) -----------------------------------------------------
(PID.TID 0006.0001)  DIAGNOSTICS_READPARMS: global parameter summary:
(PID.TID 0006.0001)  diag_dBugLevel = /* level of printed debug messages */
(PID.TID 0006.0001)                       2
(PID.TID 0006.0001)     ;
(PID.TID 0006.0001)  dumpAtLast = /* always write time-ave diags at the end */
(PID.TID 0006.0001)                   F
(PID.TID 0006.0001)     ;
(PID.TID 0006.0001)  diag_mnc =   /* write NetCDF output files */
(PID.TID 0006.0001)                   F
(PID.TID 0006.0001)     ;
(PID.TID 0006.0001)  useMissingValue = /* put MissingValue where mask = 0 */
(PID.TID 0006.0001)                   F
(PID.TID 0006.0001)     ;
(PID.TID 0006.0001)  diagCG_maxIters = /* max number of iters in diag_cg2d */
(PID.TID 0006.0001)                    5000
(PID.TID 0006.0001)     ;
(PID.TID 0006.0001)  diagCG_resTarget = /* residual target for diag_cg2d */
(PID.TID 0006.0001)                 1.000000000000000E-10
(PID.TID 0006.0001)     ;
(PID.TID 0006.0001)  diagCG_pcOffDFac = /* preconditioner off-diagonal factor */
(PID.TID 0006.0001)                 9.611687812379854E-01
(PID.TID 0006.0001)     ;
(PID.TID 0006.0001) -----------------------------------------------------
(PID.TID 0006.0001)  DIAGNOSTICS_READPARMS: active diagnostics summary:
(PID.TID 0006.0001) -----------------------------------------------------
(PID.TID 0006.0001) Creating Output Stream: dyn_Aux
(PID.TID 0006.0001) Output Frequency:     -21600.000000 ; Phase:       -1800.000000
(PID.TID 0006.0001)  Averaging Freq.:          0.000000 , Phase:           0.000000 , Cycle:   1
(PID.TID 0006.0001)  missing value: -9.990000000000E+02
(PID.TID 0006.0001)  Levels:    will be set later
(PID.TID 0006.0001)  Fields:    WVELMASS PhiVEL   PsiVEL
(PID.TID 0006.0001) Creating Output Stream: dynDiag
(PID.TID 0006.0001) Output Frequency:     -21600.000000 ; Phase:       -1800.000000
(PID.TID 0006.0001)  Averaging Freq.:          0.000000 , Phase:           0.000000 , Cycle:   1
(PID.TID 0006.0001)  missing value: -9.990000000000E+02
(PID.TID 0006.0001)  Levels:    will be set later
(PID.TID 0006.0001)  Fields:    UVELMASS VVELMASS ETAN     ETANSQ   DETADT2
(PID.TID 0006.0001) -----------------------------------------------------
(PID.TID 0006.0001)  DIAGNOSTICS_READPARMS: statistics diags. summary:
(PID.TID 0006.0001) Creating Stats. Output Stream: dynStDiag
(PID.TID 0006.0001) Output Frequency:      -7200.000000 ; Phase:           0.000000
(PID.TID 0006.0001)  Regions:   0
(PID.TID 0006.0001)  Fields:    ETAN     ETANSQ   DETADT2  UVEL     VVEL
(PID.TID 0006.0001) -----------------------------------------------------
(PID.TID 0006.0001) 
(PID.TID 0006.0001) SET_PARMS: done
(PID.TID 0006.0001) Enter INI_VERTICAL_GRID: setInterFDr=    T ; setCenterDr=    F
(PID.TID 0006.0001) // =======================================================
(PID.TID 0006.0001) // Field Model R_low (ini_masks_etc)
(PID.TID 0006.0001) // CMIN =         -8.133000000000000E+03
(PID.TID 0006.0001) // CMAX =         -9.999999999999999E-01
(PID.TID 0006.0001) // CINT =          3.011851851851852E+02
(PID.TID 0006.0001) // SYMBOLS (CMIN->CMAX): -abcdefghijklmnopqrstuvwxyz+
(PID.TID 0006.0001) //                  0.0: .
(PID.TID 0006.0001) // RANGE I (Lo:Hi:Step):(  1079:  1442:     1)
(PID.TID 0006.0001) // RANGE J (Lo:Hi:Step):(   362:    -1:    -1)
(PID.TID 0006.0001) // RANGE K (Lo:Hi:Step):(   1:   1:   1)
(PID.TID 0006.0001) // =======================================================
(PID.TID 0006.0001) K =   1
(PID.TID 0006.0001) //                I=1088    I=1098    I=1108    I=1118    I=1128    I=1138    I=1148    I=1158    I=1168    I=1178    I=1188    I=1198    I=1208    I=1218    I=1228    I=1238    I=1248    I=1258    I=1268    I=1278    I=1288    I=1298    I=1308    I=1318    I=1328    I=1338    I=1348    I=1358    I=1368    I=1378    I=1388    I=1398    I=1408    I=1418    I=1428    I=1438
(PID.TID 0006.0001) // |--J--|901234567|901234567|901234567|901234567|901234567|901234567|901234567|901234567|901234567|901234567|901234567|901234567|901234567|901234567|901234567|901234567|901234567|901234567|901234567|901234567|901234567|901234567|901234567|901234567|901234567|901234567|901234567|901234567|901234567|901234567|901234567|901234567|901234567|901234567|901234567|901234567|9012
(PID.TID 0006.0001) //    362 yxyuttsssrrsrrrrrrrqqqppppqpqqqqrrqsttptz+.....................................................................................................................+.++++++++++++++++++++zzzurooonnnnnnnnonnmqmmmmmlmmmmmllllllllllmmmmmmnmmnmmlmnnnnnnoonooooooonnnnnnnorprrpoooooononnmllkjjjjjjkkmqqqqsrnnponnnnmnmmnnmnlllllllllllllllkjjjjjjjjjjjjjjjjjjjjjjjjjjjjjjjjjkkkk
(PID.TID 0006.0001) //    361 wxvttutssssrrrrrrqrqpqpqppqqqqrstvtvvtqyz+....................................................................................................................+++.+++++++++++++++++++++++yqppooonnnnoooopnommmmllmmmmllllllllllmmmmmmlmmmmlllllmnnnnnnnnnnnnnnopoppoppoopoooonnoonmllllmlloqqmnmnmnolnnnoqononnnnnnnmmlllllllllllllkjkkkkkjjjjjkljjjjjjjjjjjjjjjjjjjjjjkkkkk
(PID.TID 0006.0001) //    360 wxwvvvtvtssrrrrrrrqqqqrqqqqqrtttvwwwvrx++...................................................................................................................+..++.+++.+++++++++++++++++++zsqpppoonnnnnooonmmnmmllllllllllllllllmmnmmmmmmmmllllnmmnnnnnnnnnnnnopoopoooqppqooonnnmmllmpqomnnnnnlmjghjjnnqqrqppponnnnnnnmmnmlllllllkkkllljkklkjkjjkljjjjjjjjjjjjjjjjjjjjjkkkkkk
(PID.TID 0006.0001) //    359 +xxxxvvttttsrrrrrrrqrssrqrrrsuuvvwxwtqy+....................................................................................................................+++.........++++++++++++++++++vsqpppspoonnnnnnnnqomllllllllllllllllmmmmmmmmmmllllmllmlnnnnnnnnnnnooooooooopqqponnnlllnnnooopnnjjkkknmnmnooooqoqqqnnnnnnnnnnnmlmllnnnmlllkllllljkjljkjjjjjjjjjjjjjjjjjjjjjkkkkkkn
(PID.TID 0006.0001) //    358 .zzyzywvuvvutttttsssssttssstuvvvvwwvttz+................................................................................................................................++++++++++++++++++zusqppqupoooooonnnpqnmlllllllllllllllmmmmmmmmmmllmmmllnmnnnnnnnnnnnnooooooooqrrqoopoonoonnnljjghnnlmmnnnnnnnnopoqronnnnnnnnnnnnnnnnnnnmllllllllllkkjjkjjjjjjjjjjjjjjjjjjjjkkkkkkll
(PID.TID 0006.0001) //    357 ++zzyzyxwwwwvuttttsssttutuuuvvvvvvvusw+......................................................................................................................+.........++......++++++++++++ztsrqqqppooooonnoppnmmmllllllllllllllmmmmmmlllllllllllnnnnnnnnnnnnnoqoooooprqqqqonnnnnkknnoqomlllllllmnnnnoopqrqqonnmnnnnnnpnoooonnnmmmmnmmllllllkkjjjjjjjjjjjjjjjjjjjjjkkkkkkkll
(PID.TID 0006.0001) //    356 zzzyzzyxxwwwwuutttsssttuuuuvvvvvvvvuqx+...................................................................................................................+.+..........+........+..+++++++++zutrqqppppoooonnooomnmmmllllllmmmmmmlmmlnlnnmmmnnnnnnnnnnnnnnnnnnnnnnnnonnmlkkklnnnnllkjlljkkmmllllnnnnnoooprrnqonnjjkmpqoqqqooonnnnmnmoonlllmlllkjjjjjjjjjjjjjjjjjjjjkkkkkkklll
(PID.TID 0006.0001) //    355 zyy+ywwwvutttttssssssttuuuuvvvvvvvvtqz+.................................................................................................................++...........................+++++++++utrrqqpppooooooopwqnooqmllmmmmmmmmllllmmmmmmlllmmmnmmmmmlmmmmmmmmmllmmmllllljkkjjjkijjjnmllnnlllmmnnnnoooooonqkknopooqqqqqqooooooooommllnnnljjkjljjjjjjjjjjjjjjjjjjkkkkkkkllll
(PID.TID 0006.0001) //    354 ttsqqrrrrrrrqrrrrrrsssttttutuvuttttrqz+.................................................................................................................+......+..+++++.............+.++++++++zvttrqqpppoooooopvtxqqqnmmmmmnqmnmmllllmmllllkkkkkllkkjkkkjjjjkkjkkkklllllllllllllmmllnlllllllkllmmnnnnllkmmnlnnnnoopqqrpqpoqoonnnnnnlnnlljjlllkjjjjjjjjjjjjjjjjjjjkkkklllllll
(PID.TID 0006.0001) //    353 pqppppppqqqqqqqrrrrrssssststutssttsqry+........................................................................................................................++......................+++++++++zxtsssqqqqppppqqtqvqqtqqppoonnnommllllllllllkkkkkkjjjjjjjjjjjjjjjjjjjjjkjklllkjklllllkkllkkkkkllllkkknnmmmnnnnnooooqppqrqoqqonnnnnnmmllnmllkjklljjjjjjjjjjjjjjjjkkkkllllllll
(PID.TID 0006.0001) //    352 pppppppppqqpppqqqqqqrrrssstuurrsssrqqz+.............................................................................................................................+...................++++++++++zyyz++zyyttrrtusqpppponooooonnmmmmmmlllllllkkkkkjjjjjjjjjjjjjjjjjjjjjjjjjkkjjjjkjkjjlnmlkjkljjjnqmmmnnnnnnnnnnnnoooooqqpqqoonnnnnmnnnmllllllkjjkkjjjjjjjjjjjjjkkllllllllll
(PID.TID 0006.0001) //    351 pppppppppppppppppppqqqqrqqqrqqrrrrrqpy++...........................................................................................................................+....................++++.+++++++++++++++yvtuusqpppponnnnnnnnnmmmmmmmllllllkkkkjjjjjjjjjjjjjjjiiijjjjjjjjihhjjijkkhhhhhjkmnnlklkjlmnnonnooonmoonoqqpqqpqqoonnnnnnnnnnllllllllkljkkjjjkkkljjjkkllllllllmll
(PID.TID 0006.0001) //    350 ppppppppppqpppppppppppqqqqqqqqqqqqpoqxz++++........................................................................................................................+....................+......++++++++++++++yvttsqppppoononnnnnnnmmmmmmmllllllkkkkjjjjjjjjjjjjjjiiiiiijjjhhhhhhhhhhhhhjjjjjkjkjjjjjklllnnmnmmllmnoqqqqqqoqqooooonnnnmmlmlllllllllkkkjkkkkkkjjkkklllllllllll
(PID.TID 0006.0001) //    349 ppppppppppppppppppppppppppqqqqqqqqpnrxz++.+............................................................................................................................................+..................++++zxtssurpppoooonnnnnnnmmmmmmllllllkkkkkjjjjjjjjjjjjjiiiiiiiiijjjjjiihhhijjjjjjjjjjjjjkllllllllllnnoooooooqqpooopqooonnnnmnmnmllllllllllkkkkkkkkkkkkklllllllllll
(PID.TID 0006.0001) //    348 pppppppppppppppppppppppppppqqqqqrpoltxz+++.............................................................................................................................................+....................++++zwtxwqqqpqpoonnnnnnmmmmmmmlllllkkkkkjjjjjjjjjjjiiiiiiiiiiiiiihiihhiijjjjjjjjjkkkkkklllllllmnnnnnnooooooopoqppoooonnnnnnnnmlmmllnmmllkkkkkkkjkkkkkklllnlmlmml
(PID.TID 0006.0001) //    347 pppppoooopppppppppppppppppqqqqrroolnvzz++.....................................................................................................................................................................++++xyysrttppppxpnnnnnnnmmmmllllllkkkkjjjjjjjjiiiiiiiiiiiiiiiihhhhhijjjjljjjjjjkkklllllllllmnnnnnnooooopqqqoqqpqoooonnnnnnnnnnnnnnmllllkkkkkklkkkkkkllmllllmlm
(PID.TID 0006.0001) //    346 oooooooooooooppppppppppppppqrspponlpxz+........................................................................................................................................................................++++xvtttrqqqqqronnppqrnnnmmmllllkkkkjjjjjjjiiiiiiiiihhhhhhhhhhhhjkkjjjjjjjjjjkkkllllllllmmnnnnnnnooooqqqrprqqponnnnnnnnnnnnnnnmllllllllllllkkkkkklllllmlllll
(PID.TID 0006.0001) //    345 ooooooooooooooppppppooppppqqpppponlsxz..........................................................................................................................................................................++++zvtutuzxytqroovvqqnpwpnmlllkkkkjjjjjjjiiiiiiiihhhhhhhhiihhhhjjijjjjjjjjjjjkklllllllmmnnnnoooooooopqqsorpoooooonnnnnnnnnmmmllllllllllllllkkkkllllllllllll
(PID.TID 0006.0001) //    344 oooooooooooooooopoooooppppooooooonlrv+...........................................................................................................................................................................++++zuuuuwuqqpponoooumnmmmmlllkkkkkjjjjjiiiiiiiihhhhhhhhhhhhhhhhhijjjjjjjjjjjkkllllllmmnnnnnnnnnoooopqqqoqqqpqpoonnnnnnnnnmmmmlllnlllmlllkkkllllmkklllollll
(PID.TID 0006.0001) //    343 nnonnoooooooooooooooooppnnnnoooonmlrz.............................................................................................................................................................................++++zutvutsqpoonmmmnmmmmmllllkkkkkjjjjjiiiiiiiihhhhhhhhhhhhhhhhiijjjjjjjjjjkkkllllllmnnnnnnnnonooopqqqroqqqoooooonnnnnnnmmmmllllmllmllkkkklmklkklkkllkllll
(PID.TID 0006.0001) //    342 nnnnnnnnnnnnnooooooooopnnnnnooponllsz...............................................................................................................................................................................++++yyyyzytponmllmlllllllkkkkkkjjjjjiiiiiiiihhhhhhhhhhhhhhhiiijjjjjjjjjjkkklllllllmnnnnnnnooooooopqqqoqqqqooooonnnnnnnnmmlllmmmllllnkkkkkjkkkjjkkkkkllll
(PID.TID 0006.0001) //    341 nnnnnnnnnnnnnnnoonnooonnnnnoopponkkrz+...............................................................................................................................................................................+++++++++yponmlllllllllkkkkkjjjjjjiiiiiiiihhhhhhhhhhhhhhhhijjjjjjjjjjjkkklllllllmmnnnnnnnoooooooppqqqqqqoqooqooonnnnnnmmmllllllllkkkkkjjjkjhjkklkllmmml
(PID.TID 0006.0001) //    340 nnnnnnnnnnnnnnnnnnnonnnnnnooopnnmlksz.......................................................................................................................................................................................++yqnnmllllllllkkkkjjjjjjjiiiiiiiihhhhhhhhhhhhhhhhhijjjjjjjjjjjkkklllllllmnnnnnnooooooooooooqqrqsqqoopooonnnnnnmmmmnmlllkklkkiijjjhjjkklllllmnnl
(PID.TID 0006.0001) //    339 nnnnnnnnnnnnnnnnnnnnnnnnnnnponnnnljpy+......................................................................................................................................................................................++xqonmlllllllkkkkjjjjjjjiiiiiiihhhhhhhhhhhhhhhhhhhiijjjjjjjjjkkklllllllmmnnnnnnoooooooooooprrqrqqqoooooonnoonnnnnnmlllkkljkihkjjhillllllllmnonl
(PID.TID 0006.0001) //    338 nnnnnnnnnnnnnnnnnnnnnnnnnoqnnnnrmkjpx++......................................................................................................................................................................................+yqonmllllllkkkkjjjjjjjiiiiiihhhhhhhhhhhhhhhhhhhhhhijjjjjjjjjkkklllllllmmnnnnnnnnnnnoooooooqqqqqqqpooooonoooonnmllllkkkjjkjjlljjjjlllllmlmnoonl
(PID.TID 0006.0001) //    337 nnnnnnnnnnnnnnnnnnnnnnnnnpnnnoonmlinv........................................................................................................................................................................................+ztqnmlllllkkkkjjjjjjiiiiiiihhhhhhhhhhhhhhhhhhhhhhhijjjjjjjjjkkkllllllllmmmlnnnnnnnnooooooppqqrqqqoooooooooonmllkkkkllkjjjjjjjjjllllllmlmmmmmll
(PID.TID 0006.0001) //    336 nnnnnnnnnnnnnnnnnnnnnnnnnnnnnnnnmkinuy.+.....................................................................................................................................................................................+ztqqmmllllkkkjjjjjjiiiiiiihhhhhhhhhhhhhhhhhhhhhhhhijjjjjjjjjjkkkkklllllllllmnnnnnnooooooooqqqqqqqqqpooonnmmlllkkkklmmkjkjjjjlllllllmllmmmmmlmp
(PID.TID 0006.0001) //    335 mnnnnnnnnnnnnnnnnnnnnnnnnnnnnnnmmkimsx++......................................................................................................................................................................................+urqpmllllkkkjjjjjiiiiiiihhhhhhhhhhhhhhhhhhhhhhhhhjmkjjjjjjjjjjjjkkllllllmnnnnnnnooooooopqqqqrntqqqonnmmmmnmlmlllllmlllllkjjjjklmlllmmmmmmmntt
(PID.TID 0006.0001) //    334 mmmnnnnnnnnnnnnnnnnnmmmmmmmmnnnmmljjrww+++....................................................................................................................................................................................+ysqpmmlllkkjjjjjiiiiiiiihhhhhhhhhhhhhhhhhhhhhhhhhhijjjjjjjjjjjjjkllllllmnnnnnnnooooopqooqqrqrqpnnnnmmnnnnmnnmllllllllllkjkkjklmnmlmnmmnmmtqnl
(PID.TID 0006.0001) //    333 mmnnmmmmmnnnnmmmnnmmmmmmmmmmmmmmmlkintx+++....................................................................................................................................................................................++tqqqnlllkkjjjjjiiiiiiihhhhhhhhhhhhhhhhhhhhhhhhhhihhhjjjjjjjkkkkkllllmmnnnnnnnnooonooqoqppqnnoonnnnoooonnnmllmllmmkklklljjkkjlllmllmnmmmnptlk
(PID.TID 0006.0001) //    332 mnnnmmmmmmmnnmmmmmmmmmmmmmmmmmmmmmkilqx++++...................................................................................................................................................................................++xommlllkkjjjpjjiiiiiiihhhhhhhhhhhhhhhhhhhhhhhhjiiijjjonjjjkkkkkkllmnnoopoooooooonnnnnnoqqponoooooooooonnnmmmlllmkkkkllkjklkjklllmlmnmmonlkkj
(PID.TID 0006.0001) //    331 mnnnmmmmmmmmmmmmmmmmmmmmmmmmmmmnnmljiqxz++++..................................................................................................................................................................................++xqmllnlkkjjjkjjiiiiiiihhhhhhhhhhhhhhhhhhhhhhhhiijjjjjkjjjjkllllmnnnnoqqoonnnnnnnnnprprqqpppoooooooooooonnnmmnllkllklklkllllkklllllmmomljjjkj
(PID.TID 0006.0001) //    330 nnnnmmmmmmmmmmmmmmmmmmmmmmmmmmmnnmljgntxz+++..................................................................................................................................................................................++yqmmnmlkkkjjjjiiiiiiiihhhhhhhhhhhhhhhhhhhhhhhhijijjjjjjjklllllmnnnnnoooonnnnnnoopqqsprrrqqqpppoooooooonnnnnlllmllkmkkkmllkklkllllmomlkjjjjjj
(PID.TID 0006.0001) //    329 mnnnmmmmmmmmmmmmmmmmmmmmmmmmmmmmmmljijsvyz+++.................................................................................................................................................................................++yupmlllklkjjiiiiiiiiiihhhhhhhhhhhhhhhhhhhhhhhhhhhijjjjjjjlllllnnnnnnnnnnnnnoopqqzsqtqqrrqqqqqpoooooooonnnmllllllkkkklllkjkllllllllmlkjjjjjjj
(PID.TID 0006.0001) //    328 mmmmmmmmmmmmmmmmmmmmmmmmmmmmmmmmmlljjgpvxz++++................................................................................................................................................................................++yvtmlkkkkjjjiiiiiiiiiihhhhhhhhhhhhhhhhhhhhhhhhhhhhijjjjjjljjlllmnnnnnnnnnooooprsqqrtqsrrqqrqqpooooooonnnmmmlllllkkllkkjjjkklllkklmlkkjjjjjji
(PID.TID 0006.0001) //    327 mmmmmmmmmmmnmmmmmmmmmmmlllllmmmmllljjimuxyz+++................................................................................................................................................................................+zwutmkkkkkjnjmjiiiiiiihhhhhhhhhhhhhhhhhhhhhhhhhhhhhhijlkjjjjllllllmnnnqooooooopqqqqrsssrqqqqqqoooooooonmnmllllmlolkkjjjjklllllllkllkkkjjjjjij
(PID.TID 0006.0001) //    326 mmmmmmmmmmmmmmmmmmmmlllllllllllllllljihqvxz++++..............................................................................................................................................................................++xvtsmlkkjjjkqpjjjiiiihhhhhhhhhhhhhhhhhhhhhhhhhhhhhhhijllllkkllmlmnnnnnoooooooopqqqrrrssrrqqqqqpoooppoonmmmmnmlnmlkkklklllllllklkkkllkjjjjiiji
(PID.TID 0006.0001) //    325 mmmmmmmmlllllllmmlllllllllllllllllkmkigmsxz+++++.............................................................................................................................................................................++urrpmkkkjjjlljjkkjihhihhhhhhhhhhhhhhhhhiihhhhhihihhhijjjjjllolnloonnnnnnoooooopprqrsttssqqqqqqoooooqponnmnnnmmlllllllllllllllkkkkkklljjijiiji
(PID.TID 0006.0001) //    324 mmmmmmmlllllllllllllllllllllllllllllkjhioty+++++............................................................................................................................................................................++ztonmlllkjjjkkjjmjkiiiiihhhhhhhhhhhhhhhhhhhiijjihjhhhjjkllklnnllklmnmnnnnnnnnnooopqsststrqqqpooooooooonnnnnnnmllllmmllllllllllllkkklkjjihiiiih
(PID.TID 0006.0001) //    323 mmmmmmmllllllllllllllllllllllllllllllkiglrvz++++...........................................................................................................................................................................+++xqnmmllkkkjjjjjkmnnjiiiihhhhhhhhhhhhhhhhhhhhhhhhhhihjjkklkjkklklllllllmnnnnnnnnoopqrrrrttqqqpoooooooooooononnnnmllllmlllklllponmlkjjjjiiiiiihh
(PID.TID 0006.0001) //    322 mmmmmmlllllllllllllllllllllllllllllllkjihntxz++++..........................................................................................................................................................................++uqonrkkkkkkjjjjjjkkjjiiiihhhhhhhhhhhhhhhhhhhhhhhhhhijhjijjjhjjjjjlllllmnnnnnnnnnnoooqqrtvtqqqppppppqppppoooonnnmlllllnnlllonmnpnlljjiiiijkkiihh
(PID.TID 0006.0001) //    321 mmmmmmllllllllllllllllllllllllllllllllkihjqvxz+++.........................................................................................................................................................................++xqpnnlkkkkkkjjjjjjjjjiiiihhhhhhhhhhhhhhhhhhhhhhhhhhhhgggghhhhijjjjkllllmnnnnnnnnnoopqqqqssrqqqqqqqqppppppoooonnnmllmmnootllllllllkjiijjjjlnjihij
(PID.TID 0006.0001) //    320 mmmmmmmlllllllllllllllllllllllllllllmlljignsux++++.......................................................................................................................................................................+zvqpnnlllkkkkkjjjjjjjjjiiiihhhhhhhhhhhhhhhhhhhhhiiihhhhggghhhhijjjjjjklllmnnnnnnnnnoopqqqqtrrqqqqqqqppooooooooonmmllmnnnoonllljkljjjiiijjjlljjiiii
(PID.TID 0006.0001) //    319 mmmmmmmlllllllllllllllllllllllllllllllllkiintvxzz+......................................................................................................................................................................++xsponmlllkkkkjjjjjjjjjiiiiiihhhhhhhhhhhhiihhhhhiiiiihhhhggghhhijjjjjklllllnnnnnnonoooopqqqrrqqqqqqqpppooooonnnmllllmnmmmmmllljkkjjljjjiikkjjiiiiih
(PID.TID 0006.0001) //    318 mmmmmmmmllllllllllllllllllllllllllllllljjjgkptvxzz+....................................................................................................................................................................++ytqonmmlllkkkkjjjjjjjjjiiiiiiiihhhhhhhhhhiihhhhhijjiihhhhghhhhhhjjjjjlllllmnnnnnnnnnnoooppqsqtqqqqqppoponnnnnmlllmnmmmmlllllllljjjjjjjjjjkjjiiiiihh
(PID.TID 0006.0001) //    317 mmmmmmmmmmmmmlllllllmlllllllllllllmmlllllkignqtwyz+..................................................................................................................................................................+++xtqponmmllkkkjjkjjjjjjjiiiiiiiiiihhhhhhhhhhhhhhhhiiiiihhhhhhhhhhijjjjklllllllnnnnnonoopqqppqqqqrqqqqonnnnnnnnmmlmlmmlllllllllllkkjjjjjjjjjiiihiiiiih
(PID.TID 0006.0001) //    316 nmmmmmmmmmmmmmmmlllllllllllllllllllmlllllkihiortxy++.................................................................................................................................................................+zwsqponnmllklkkkkkjjjjjjjiiiiiiiiiihhhhhhhhhhhhhhhhhhhhhhhhhhhhhhijjjjjkllllllnnnnnnoooopqqpqqsrqqqoooooonnnnnnmllllllllllllllllllkjjkjjjjiiiihjilwuji
(PID.TID 0006.0001) //    315 nmmmmmmmmmmmmmmmmllllllllllllllllllllllllkjihmptwy++................................................................................................................................................................+zvqppoonmmlllllllkkkjjjjjjjiiiiiiiiihhhhhhhhhhhhhhhhhhhhhhhijhhiijjjjjkkklllllllmnnnnoooopqpoqpooooqoooooooonnnnmlllllllllllllllmlmmkjjjiiiiiijkwjkkihh
(PID.TID 0006.0001) //    314 nnnnnmmmmmmmmmmmmmllllllllllllllllllllllllkjihnrvxz++...............................................................................................................................................................+xsqpoonnmmllllkkkkkkjjjjjjjjiiiiiiiihhhhhhhhhhhhhhhhhhhhhhhhhhjjjjjjkkklllllllllnmnnnnnnnoooopqqqpppoooooooonnnnllmllllllllllnllmllkjjiiiijiiijjnjhhhhh
(PID.TID 0006.0001) //    313 nnnnnnmmmmmmmmmmmmmmllllllllllllllkkllllllkkihkosux+++.............................................................................................................................................................+ztqpoonmmmlllllmlklllllkjjjjjjiiiiiiiihhhhhhhhhhhhhhhhhhhhhhhhhhhhjkllllllllllllllmnnnoqqtoqrsqqqqpqqooooooooonnnnnnlllllmlllllllkkkjjliijjjjiiihihhhhhh
(PID.TID 0006.0001) //    312 nnnnnnnmmmmmmmmmmmmmllllllllllllkkkkkllllllkjiinqtvx++.............................................................................................................................................................+wrpponnmmmlmmmnrmllllnnljjjkjiiiiiiiiihhhhhhhhhhhhhhhhhhhhhhhhhhhhjkjjjjjjklllmnmnmnoooprtqrqqqqqqpooooooooooonnnmmmlllnmmlllllllkkjjjjijjijjhhhhhhhhhhi
(PID.TID 0006.0001) //    311 mmmnnnnnnnnnnmmmmmmmlllllllllkkkkkkkklllllllkjiipsvxz++...........................................................................................................................................................zxsqponnmmmlllmmnnmmmllnokjjjiiiiiiiiiiihhhhhhhhhhhhhhhhhhiiiihhhhhhhhhijjklllllmnnnonooqoqqqqqqqqqqpoooooooooonnmmlllmnmmmlmmnnnnmlmlllkkhjiihhhhhhhhhhhi
(PID.TID 0006.0001) //    310 mmmmnnnnnnnnnmmmmmmllllllllkkkkkkkkkkklllllllkjilosvyz+........................................................................................................................................................+.+ysqponnmmmmllllmllmmmmllnnkjiiiiiiiiiiiihhhhhhhhhhhihhihhihihiijijkjjkkkllllllllmnnnnnoooqqqqqqrqqqqqopoooooooonnmnnnllmllllmoppopomnllllkiihhhiiihhhhhghi
(PID.TID 0006.0001) //    309 mmmmnnnnnnnnmmmmmmmlllllllkkkkkkkkkkkkklllllllkjimqtwxz+......................................................................................................................................................+++ztqponnmmmmllllllllllmmlkkkjjjjjiiiiiiiiihhhhhhhhhhhklljhhjijijijjjjjjjkkllllllllmnnnnoooooooqrqqqqpqpopooppooonnnmmlllllllllnoqtswunmllkkkjjihhjliiijhhhhh
(PID.TID 0006.0001) //    308 nmmmnmmmmnnmmnnmmnlllllllkkkkjkkkkkkkkkkllllllkkjiosvwyz+.....................................................................................................................................................++ztrpoonmmmmlllllllllkllllkkjjjjjiiijiiiiiihhhhhhhhhhhhjjhhhhhhhhhjjjjjjjjkllllllnmnnnnoooppqpqqqqoopqoqqpqooooooonnnnonllllllmnooqqqnmmllkkkllihhjjiihhhhhhh
(PID.TID 0006.0001) //    307 nnonnnmmnmmmmmmmlllllllkkkkkjjjkkkkkkkkklllllllkkjjoswyz+.....................................................................................................................................................++usqpoonmmmllllllllkkkkkkkkkkjjjjjijjjjjiiiihhhhhhhhhhiihhhhhhjiijjjjjjjjkkllllllmlnnnnnnoooooqspqoqqqoopoooooonnnnnpqponnmnononpponmmmlllkkkjjihhhhjijiiihhh
(PID.TID 0006.0001) //    306 noonnnmmmmmmmmmlllllllkkkkkkjjkkkkkkkkkkllllllllkkikotxz+.....................................................................................................................................................+ztrpoonnmmmllllllllklllllkkkkjkjjiijkjjjjiiihhhhhhhhhhhhhhhhhijjhijjjjjjjjjjjlllllnnnnnnnooqppqqqqqqppqpqoqponnnoqooqqpoopooqnonnonmlllllllkkjjjhhhhiiiiiiihh
(PID.TID 0006.0001) //    305 nnnnmmmmmmmmmllllllllkkkkkkkjkkkkkkkkkkklllllllllkkkmpvy+....................................................................................................................................................++wsqponnmmmllllllllkklmnnmlkkkjjljjjjjjjjkljiiiiiiihhhhhhhhhhhihhhhijjjjjklklklllllnmnnnnnnnoqoqrrqsrqqpnnnnnooqoooooooooooonnmmmmmmmlllmnllkkjijhihhhihhiiiii
(PID.TID 0006.0001) //    304 nnmmmmmmmmmlllllllllkkkkkkkkkkkkkkkkkkkkkllllllmmllkknrwz.....................................................................................................................................................+xsqponnmmllllllllllllmnnllkkkkkjjjjjjjjjjiiiiiiiiihhhhhhhhhhhhhjhjjjjjjjkkjjjjklllllmnnnnoopqqqrqnnnooqnpoopoooooooooooponnnmmmmmmmmllllllllljhhhhijkkiiiiijj
(PID.TID 0006.0001) //    303 nmmmmmmmmlllllllllllkkkkkkkkkkkkkkkkkkkkklllllmmmmllkjntyz...................................................................................................................................................++xsqponmmmllllllllllllmmmlllllkkkjjjjjjjjjliiiiiiijjhhhhhhhhhhhhhhhhihhhhjkkkkkllllllmnnnoqplnnnnqoppsrqqqooppqpooooopooqonmmmmmmmmmmmlllllllljihjkkkjhhiiiijj
(PID.TID 0006.0001) //    302 mmmmmmmmlllllllllllkkkkkkkkkkkkkkkkkkkkkkllllllmmmmmmljpuz+..................................................................................................................................................++vsqponmmmllllllllllllllllllmllkkkjjjjjjjjiiiiiiiiihhhhhhhhhhhhhhhhhhhhhjjjlllllllllllmllmmonoqpprqqqqqqqqqppooooooooopopnmnmmmmmllmmmllkkkkkjjjkkkjhhiijiiiji
(PID.TID 0006.0001) //    301 mmmmlllllllllllllllkkkkkkkkkkkkkkkkkkkkkklllllmmmmmmmmmlpwz+.................................................................................................................................................++ysqpnnmmmlllllllllllllllllmnmllkkkjjjiiiiiiiiiiihhhhhhhhhhhhhhhhiiihhhijkllkkkllllllmnnnmoqooooqqqqtsqrqqopoqpqoonnooonnnnnmmmllllmmmllkkkkjjjjjiiiijjjkiiiii
(PID.TID 0006.0001) //    300 mmlllllllllllllllllkkkkkkkkkkkkkkkkkkkkklllllllmmmmnooonlptxz................................................................................................................................................++zuqonmmmmmllllllllllllllllmnmllkkkjjjiiiiiiiiiiihhhhjhhhhhhhhhhhiijjhjjjjjjjjllllmmnnnnnnopooqqqqrrqqqqqqqqqpoooonnnppnnnommmmmlllmmmlllkkjkkjjjjkkkljjiijiih
(PID.TID 0006.0001) //    299 mmllllllllllllllllllkkkkkkkkkkkkkkkklllllllllllmmmnoppppnkouyz................................................................................................................................................++xqonnmmmmmlllllllllllllllmmmllkkkjjjjiiiiiiiiiihhhhhhhhhhhhhhijjjjjjjjjjjjkllmnmmnnnonnoooqpqqqqqqrsqrqqqqqoonoonmmnmmmnommmmmnmonmmmlllkkkkjjjjkkkiiiiiijih
(PID.TID 0006.0001) //    298 mlllllllllllllllllllkkkkllllkkkkkkkllllllllllllmmnnopqrqpmkotxz+..............................................................................................................................................++usqonmmmmmlllllllllllllllmmllkkkkjjjjiiiiiiiiiiiiiiijiiiiiiiijjjjjjjjjjkkllllmmnnnnnnnooooooopqqrqqqqqqqqqqnnnnnnnnmmmmmmmmlmqxmmmnomlllkkkkjjjjjjjjjjiijiii
(PID.TID 0006.0001) //    297 lllllmmmllllllllllllllllllllllkkklllllllllllllmmnnopqrsrponimsuwz+............................................................................................................................................+++zwponnnmmmmnnmllllllllllllllkkkkjjjjjjiiiiiiiiiiiiijiiijiiijjjjjjjjjjkkklllllmnnnnnnnnoooppppoqqqqpsorpqnnnnnnnnnonoommmmmmmqommmqsnlllkkkjjjkkkjjjjiiiijih
(PID.TID 0006.0001) //    296 lllllmmmmllllllllllllllllllllllkklllllllllllllmnoopqrsssppnlgjptvy+...........................................................................................................................................++++zqonnmmmmmnnmmllllllllllllkkkkkkjjjjjjiiiiiiiiiiiiiiijjjjjjjjjkmlllkkklllmmmmnnnnnnnnoooooqqqqqqqoqnnnnnnnononooooonnnmmmmmmmmmmnsmlllkkkjjjklkjiijjkkkjii
(PID.TID 0006.0001) //    295 llllllmmmlllllllllllllllllllmllkllllllllllllllmnoppqssrqpnnnkgjoptwz++.......................................................................................................................................++++yzqonnnnmmmmmmmlllllllllllkkkkkkkkkjjjjjjjjiiihhhhiijjjjjjjjjjjlllllkklllmnmnnnnnnnnnnoooooqpnnnnnnopnoppqopoooooooonnnnmmmmmmllmmmllllkkjjjjjjijjjjjiiijii
(PID.TID 0006.0001) //    294 llllllllllllllllllllllllllllllllllllllllllllllmnppqqssqponnnljghmostwy++.....................................................................................................................................+++xuqpnnoqonmmmmmmllllllllllkkkkkkkkkkjjjjjjjiiihhhhhhijjjjjjjjjjkllnnlkkllllllllmnnnnnnnnooonnnoqqprnqqqqqpooqoooooononnnmmmmmmmmllllllllkjjjjjijjjkjjijjiiii
(PID.TID 0006.0001) //    293 llllllllllllllllllllllllllllllllllllllllllllmmnopqqqqqppommnlkjidinqsuxzy....................................................................................................................................+++usqqqpppnonmmmmmllllllllllkkkkkkkkkkjjjjjjiiiiijiijijjjjjjjjjjjjjjjjjjjkllllllmnnnnnnnnnonqoqqoqqqqoqqqqqqqppoooooonnnnnmmnmmmmmmllllkkkkjiiijjkjjjjijjjjiii
(PID.TID 0006.0001) //    292 lllllllllllllllllllllllllllllllllllllllllllmnnnoqqqqppoonmmmlljjhegjosvxwy+..................................................................................................................................+++vtqvuxysnnnmmmmmllllllllllkkkkkkkkkkkjjjjjiiiiijiiiiiiiiiiiijjjjjjolljjkllllllmnnnnnnoooooqopoqqqqqprqqqqqqpooooooooonommmmmmmnmllllkkjjjjjjjjjjjjjjjjjjijii
(PID.TID 0006.0001) //    291 llllllllllllllllllllllllllllllllllllllllllmnopopqqppoonnmmmmmllkkigeinsuvxzz+................................................................................................................................++++xtrqppnnnnnnmmlllllllllllkkkkkkkkkkkjjjjiiiiiiiiiiiihihhhhiijjjjjkjjjjjjklklnnnnnnnonnnnoooqqqqqqqqqqqqqqqooopqooononmmmmnmnlmllllkklkjjjjjjjjjjjjjjjljjiii
(PID.TID 0006.0001) //    290 llllllllllllllllllllllllllllllllllllllllllmnpqppppooonmmmlmmlllljkigeioqvvxyz................................................................................................................................+++++xysponnqqnnmmmmllllllllllkkkkkkkkkkjjjjiiiiiiiiiihhhhhhhhhiijjjjjjjjkklmnklnnnnnnnoooonopooooqqqrrqqqqqqqpppoooonnnonnmmmmmnnmnlllkljjjjjjjjiiijjkkjjiiiii
(PID.TID 0006.0001) //    289 lllmlllllllllllllllllllllllllllllllllllllmnopqqpoonnnnmmllllllllllmkiefmqsxxyz..............................................................................................................................+++++++++twoouvonmmmmmllllllllllkkkkkkkkkjjjjjiiiiiiiiihhhhhhhhhhhjjjjjjjjjjkllllmnnnnnnoooooooooppoqqqrqsstqqooooooooooonmnnmmnmmllnlljjjjjjjjjjiiijjklkjiiijii
(PID.TID 0006.0001) //    288 lllllllllllllllllllllllllllllllllllllllmmnnppqqppqnnnmmllllllmmllmnnnjeflotwwyz............................................................................................................................+++++++++xtonnoonnmmmmmmllllllllllllkkkkkjjjjjjiiiiiihhhhhhhhhhhhhijjjjjjjjjjjjllllmmmmnnoonnnnoopqqqqqqqqrrqpooopppoonnnnnnnnmmmnnllkjjljjjjjjjjiijjjjklkiijjiii
(PID.TID 0006.0001) //    287 lmlllllllllllllllllllllllllllllllllllllmmnopqqponnnnmlllllkklmmllmmmnljgekqtvxxz+..........................................................................................................................++++++++xqpnnnnnnmmmmmmmmllllllllllllkkkkjjjjjjiiiiiiihhhhhhhhhhhhjjjjjjjjjjjjjkllklllmnnnnnnnoooqqooooqqqrrrqqqpoooonnnnnnnnnnmnmmjjlljjjjjjjjjjjjjjjjjjiijjiiji
(PID.TID 0006.0001) //    286 mmmlllllllllllllllllllllllllllllllllllnmnnoqqqpnnmmmllllkkklllllllllmmmkgflqrvvwz..........................................................................................................................+++++++yqoonnnnnnmmmmmmmmmmmmmmmmlllllkkjjjjjjjiiiiiiiihhhhhhhhhhhhiiijjjjjjjjjjjjkkllnnnnnnooooooopooqoqqqqqrqqqqqoqooononnnnnllmnmljkkjjjjjjjjjjjjjjjiijjjjjjjl
(PID.TID 0006.0001) //    285 mmmlllllllllllllllllllllllllllllllmmmmmnnnopqponmmmlllllkklllllllllllmmmkggmqtvvz..........................................................................................................................+++++++zqoonnnnnnmmmmmmmmmmmmmmmmmllllkkjjjjjjjiiiiiiiihhhhhhhhhijhhhhihhijjjjjjjllmlllnllmnnnnoopooooooqqrqqrrqqooooopooonnnmmnlllllljjkljjjjjjjjjlkkjjjjiijljii
(PID.TID 0006.0001) //    284 nnmlllllllllmmmllllllllllllllllllmmmmnnnnopppnnmmmmmllllllllkkkklllllmmnmifgotuwz..........................................................................................................................+++++++xpoonnnnnnmmmmmmmmmmmmmmmmmlllkkkjjjjjjjiiiiiiiihhhhhhhhhiihhhiiijjjjjjjjjllllllllnnnnnnnnnoooqqqqqqqqqqqqqqpqopoonnnnnnmlllllllnlljjjjjjjkllkjjkiiijjjiii
(PID.TID 0006.0001) //    283 mnmmmlllllmmmmmmmlllllllllllllllmmmmnnooorqoommmmmmlllllllllkkkkkkklllmnnlhdhruwy..........................................................................................................................++++++zuppoonnnnmmmmmmmmmmmmmmmmmllllkkkjjjjjjjjiiiiihhhhhhhhhhhjjiiiiiijjjjjjjjjkklllllmnnnnnnnnooooopooqrqsqqrsqqonnnnnooonnmlllllnllljjjjjjjjklljjjiijijijiiij
(PID.TID 0006.0001) //    282 nnmmmmmmmmmmmmmmmmllllllllllllllmmmnnopprtqonmmmmmmllllllkkkkkkkkkkkllmmnokeelswy+........................................................................................................................+++zzzyyxttoonnnnmlllmmmmmmmmmmmmmmlllkkjjjjjjjjjjiiiiiihhhhhhhhiiiiiiiiiijjjjjjkklllllllmnnnnnnnnoooopqpqqqqrrrqqpqopqopoooonnmmnlmkkjjkjjjjjjjjlkkjjiijjjliiiiji
(PID.TID 0006.0001) //    281 mmmmmmmmmmmmmmmmmmllllllllllllllmmnnopqqrrqnmmmmmmmlllllkkkkkkjjjkkkkllmnplidjswx+........................................................................................................................++zxwxyyxxqooononmllmmmmmmmmmmmmmmmlllkkjjijjjijjjjiiiiihhhhhhhhhiiiiiiijjjjjjjkllllllllmmmnnnnnnnnnoooqqoooooqrrrqrqqqqqpooononllkjjkjjjljjjkllkkkkjjiiijiiiijiii
(PID.TID 0006.0001) //    280 mmmmmmmmmmmmmmmmmmllllllllllllllmmnopqqrqponmmmmmllllllkkkkkkkjjjkkkklllnoojdgpvx+.......................................................................................................................++ywvuuxxvuxprrppponmmnmmnmmmmmmmmllllllkkjjjlkjjjjjjiiihhhhhhhhhiiiiiiijjjjjjjjkllllllllmmmmmnnnnnnonnnnopqqqqqqrtqrqqqqqppoonnllkklkjjjjjkklljkkkjjjjjjiijjljiiii
(PID.TID 0006.0001) //    279 mmmmmmmmmmmmmmmmmmmllllllllllllmmnopqqrsqnnnmllllllllllkkjkjjjjjkkkkklllmoqngfpvy.......................................................................................................................++zwutttttvuttwwtwqqpoqpnmnnnmmmmlmmlllmlkkmqnrlkjjjjjiihhhhhhhhhiiiiiiijjjjjjjjjkklllklllnnmmmnnnnnnnnoooooooqqqqsrqqqqqqponnnnnlllmmmjjjjllkjjkjjjjjjjkjjllijijjii
(PID.TID 0006.0001) //    278 mmmmmmmmmmmmmmmmmmmmmlllllllllmmnnoprsttonnmlllllllllkkjkkkjjjkkkkkkkllllnolgepvz.......................................................................................................................++yvtsssrwyyytqqqqsuxwwzqonnnnmmntxqmlllkklovornkjjjjjiihhhhhhhiiiiiiiiijjjjjjjjjlkklljllllllnllmnnnnnnooooqoqqppqrrqrppoonnqqnmlllmllkjjjjlljkjkkkjjjijnnjjhhijiiii
(PID.TID 0006.0001) //    277 lmmmmmmmmmmmmmmmmmmmmmlllllllmmnnpqsstvsomllmmllllllkkkkkljjjkkklkkkkkkklmnlkeoty+....................................................................................................................++++xutsrrqqttpnmmnnopqnqsrqyxrnmmnnomlkkkkkkmkkjjjjjjjjiiiiiiiiiiiiiiiiiijjjjjjjjjjjjkjlklllllmmmnnnnnnnnnnnnooqqqtrqqqoopoqpqpnnlnnljjljjmjkklkjklljjiijjjiiihhhhiii
(PID.TID 0006.0001) //    276 lmmmmmmmmmmmmmmmmmmmmmmmllllmmnnpqsttttommmnmmlllllllkkkklkkjkkkkllkkkkllmnlhentx+....................................................................................................................+++xwutssrqoponmmlllmmmmnnnoqpnlmmmllllkkkjjjjjjjjjjjjjiiiiiiiijiiiiiiiiiiijjjjjjjjjjjklllllllllmnnnnnnnnnoopopqrqoqqqrqqrqqqqpqnnlllnllljjjjjklkkljjiijjliiijjiihhiii
(PID.TID 0006.0001) //    275 mnmlmmmmmmmmmmmmmmmmmmmlllmmmmnoqstvvtpnmlmmmllllllllkkkllkkkkkkkllkkklllnmlidmtx+....................................................................................................................+++ywutsrrqonnnmmllllllllllllllllllllllkkkjjjjjjjjjiiiiiiiiiiiiiiiiiiiiiiiiiiiiijjjjjjkllllllllllllnnnnnnnnnnnnnnqrqrorqqqoopnlllnlmlmkkjjjjkjklkjjjjiijiilljjiiiiiiii
(PID.TID 0006.0001) //    274 mnnlmmllmmmmmmmmmmmmmmmmmmmmmnoqrtvwtpomlllllllljllllkkllkkkkkkllllkklllllllgdlsx+....................................................................................................................++++wussrqpoonnmmmmllllllkkklllllllllllkkkjjjjjjiiiiiiiiiiiiiiiiijjihhiiiiiiiiiiiijjjklkjjklllllmnnnnnnnnnnopqpopqqqrosoponnnnnlnnllllkjlkllljjjjjmjljjjkjkjjiiiiiiiii
(PID.TID 0006.0001) //    273 mnmmmmmmmmmmmmmmmmmmmmmmmmmmnoqsvutsponmlllllllllllllkkkkkkkkkllllkkkmllmmmledlrx.....................................................................................................................++++xtsrrqponnnnntmmlllllkkkkkklllllllkkkjjjjjjjiiiiiiiiiiihhhhhhggggghhhgghhhiiijjjjjjjjkllllllmnnnnnnnnnoooopoqqoqqqqpqqqqomnllllllllklkljjjjjjjkkkjjiiijiijiiijiiii
(PID.TID 0006.0001) //    272 mnmmmmmmmmmmmmmmmmmmmmmmmmmnppsusrpponmlllllllllllllllkkkkkkklllllkkllmmmmmkecksx....................................................................................................................+++++xtsrrqpopponnnmmmlllllllkkllllllllkkkjjjjjjjjiiiiiiiiihhhhhhhhhhhhghhhhhhikjjjjjjjkljjjlllllmmnnnnnnnnnnnnoportqrqqqqnnnnllllllllllkkjjjjjjjljjjjjjiiiiiijiiiiiiii
(PID.TID 0006.0001) //    271 mmmmmmmmmmmmmmmmmmmmmmmmmmmnoqstspponnmllllllllllllllllllllllllmllkllmnnonmkedlty.................................................................................................................+++++++xwtrrrqppqyqnnnmmmmlllllkklllllllllkkkjjjjjjjjjiiiiiiihhhhhhhhhhhhhgghhhhiijjjjjjjjjjjkklllllmmnnnnnnnoopppqqqrqqropnnnnnmlmllllllljjjjjjjjkjjjjjjjiijiiijiiiiiiiii
(PID.TID 0006.0001) //    270 mmmmmmmnnnnnmmmmmmmmmmmmmmmmnopstponnmmlllllllllllllllllllllllllllllmoqqonmkfdlsy.................................................................................................................+++++zywtsrrqqppponnnmmmmmmmmlllkjkkkklllkkkjjjjjjjjjjiiiiiiihhhhhhhhhhhhhhhhhhiijjjjjjjjjklllllllllmmnnnnnnnoooopqqqtpnnnnnnnnmmmmllllllkkjjjjkjjjjjijjiiiiiiiiiihhiiiiii
(PID.TID 0006.0001) //    269 mmmmmnnnnnnnnnmmmmmmmmmmmmmmnrqtpponmmmllllllllmlllllllllllllllllllmnoqoommjefmuz................................................................................................................+++++zxvsrrqqqppoonnnnmmmmmmmmlllkkjjjkkkkkkjjjjijjjjjjiiiiiiiihhhhhhhhhhhhhhhhiijjjjjjjjjjkllllllllllmnnnnnnoooopopoooqopooooonmllmlllllllkjjjjjjjjjjiiiiiiiiiihhhhhhiiiii
(PID.TID 0006.0001) //    268 mmmmnnnnnnnnnnnmmmmmnnnmmmlnmrvsppqmlmmmmllllllllllllllllllllllllmmnnooonmljdgow.......................................................................................................+++++++++++++++yusrrqqqqppoonnnnmmmmmmmmmllllkkjjjkkkjjjjjiijjjkkjiiiiiiihhhhhhhhhhhhhhhiiijjjjjjjjjjjkllllllllllnlnnnnnnnoprqqrpqpqooonnmlllmllllllkkjjjjjjjjkjiiiijjjhhhhhhhhjiiiij
(PID.TID 0006.0001) //    267 mmmnonnnnnnnnnnnnmnnnnoqrnmmnprpppollmmmmllllllllllllllllllllllllnnnnnnnonlicgoy......................................................................................................+++++++++++++++zwsrrqqqqppooonnnnmmmmmmrmmlllllkkjjjjjjjjjiiijjjjjjiiiiiiiiiihhhhhhhhhhhhiiiijjjjjjjjjkllllllllllllnnnoqooqqqsorqooooopooommlllnlllljkjjjijjjiijiiiiiiihhhhhhhhhiiiiii
(PID.TID 0006.0001) //    266 nnnnonnnnnnnnnonnopsvtqrponnoppoponlmmmmmllllllllllllllllllllllnmmnnnnnnnnmidfpv+...................................................................................................+++++++++++++zz+zxtrrqqqqpppooonnnnnmmmmmmmmlllllkkkjjjjjjiiiiijjjjjjiiiiiiiiiiiiiiiiihhhhhhiiiijjjjjjjjljjjjjlkllnnnnnooqoooooqoqqqqpqoqonnnllnmnkjjjjjjkjjjkjiiiiiiihhhhhhhhiiiihhhiii
(PID.TID 0006.0001) //    265 onnnoopnnnnnnnnnotqppppsponnponnonmlmmmmmlllllllllllllllllllllmonnnnnnnmmmlichqv.................................................................................................+++.+++++zzzzzzxxxxxtsrrqqqpppooonnnnnmmmmmmmmmllllllkkjjjjjjiiiiiiiiiiiiiiiiiiikniiiiiiihhhhhhiiiijjjjjjjjkkklllnmmmnnnnnnnnnnpqqrqrrqpponnnnnonnmjjjlllkllljjjjjjijjjjkjjjjjjiihihhhhhijk
(PID.TID 0006.0001) //    264 onnnnnnnnnnnnnnnqommnnouononpommnmmmmmmmmmmlllllllllllllllllllmmnopnmmmlmmlibjru...............................................................................................++++++++++zzzyxxwvvvuttrrqqqqpponnnnnnnmmmmmmmmmmllllllkkjjjjjjiiiiiiiiiiiiiiiijiiiiijjjjiiihhhhhiiiijjjjjjjklklllmnnnnnnnnnnnoqoqqoqqqqooooqooononllllmmmmmllljjjjjjjjjjjjjjjjhhhhijkhjiiiij
(PID.TID 0006.0001) //    263 rnnnnnnnnonnnnmnmmnnqnopmnourpnnmnmmmmmmmmnmmllllllllllllllllmmnoqopmlllmmlidjsx..............................................................................................++++++++++zyyxxvvvvuttssrrqqqppooonnnnnmmmmmmmmmmlllllllkkjjjjjiiiiiiiiiiiiiiiiiiiiiiiiiiiiiiiiiiiiiiiiijjjjjklllllmnnmnnnnnnnnonnooqqstqqqqopnnnnnnmmmmmmnnnmljjjjlkjjjjjkhhjhjjjjjjjiiiijiii
(PID.TID 0006.0001) //    262 ooonnnnnoonnnmmmmnopxptvomnpppoononmmmmmmnnnmmllllllllllllllmnooppoommmmmmliejqx............................................................................................+++++++++++++zxvvvuuuttssrrqqqqpoooonnnnnmmmmmmmllllllkkkkjjjjjjiiiiiiiiiiiiiiiiiiiiiijjjjjjjjjjjkjiiijjjjjlkklllllllmmnlnnnnnnnnnpqqqqrtrooonnnnnnnnnmmmmmlmnmjjjkllkjjjjjljijjjiijjjjiiiiiiiii
(PID.TID 0006.0001) //    261 pppopoorvsqnnnnoooppppppooopppposwrnmnmmmmmmmmllllllllmllmmmnoppqopnmmmmmmlidlsx...........................................................................................+++++++++++++zyvuttttttssrrrqqqppooonnnnnmmmmmmmmmmlllllkkkkjjjjjjiiiiiiiiiiiiiiiiiiiijjjjjjjjjjjlllkjjljjkjlklllllllllllmnnnnnnnnoqpooooppqoqoqqnnnnnmmmmnnlllllljjjjjjjlljjkjjjjjjjlljjiiiiiiij
(PID.TID 0006.0001) //    260 twsqqoorvtsonnonooopqqpooooooppprwsnmmmmmmmmmmmmmmmmmmmmmmnnopppponmmmmnmmlieltx..........................................................................................+++++++++++++zyxvuttttttssrrrqqqpponnnnnnnmmmmmmmmmlllllllllkkjjjjjiiiiiiiiiiiiiiiiiiiiiiiijjjjjkkllllkkkkkkklllllllllnnmmnnnnnnnnnnooqpqtprrotqqonnnnnmnmmmllllkjjjjklllkjjjklkjjjljjjjjjjjjiijjj
(PID.TID 0006.0001) //    259 qqpponnnooonnnonnnnpsrqqrqoooppprtpnmmmmmmmmmmmmmmmmmmmmmmooqqpoonnmlmmnmrliemry........................................................................................++++++++++++++zywvvuuttttssrrrrrqpppnnnnnnmmmmmmmmmmlllllllllllkjjjjjjiiiiiiiiiiiiiiiiiiiiiijjklllkklllllllllllllllllllmnnnnnnnnnnnnoooooqqqqqroonnnnonnnnnmlllllllkllllllkjkkkklkjjkkjjjjjjkjjjjjjj
(PID.TID 0006.0001) //    258 pqppnmmmnnnonorpooqsxrqrprsqqupsvpnnmmmmmnnnmmmnnmmmnmmnmnoppoonnmllmmmmnmligmu.........................................................................................+++++++++++++ywvuuutttttsssrrrqqppooonnnmmmmmmmmmmmllllllllllllkkjjjjjjjiiiiiiiiiiiiiiiiijjjjjkkllkkkkkkkjkjjjjjllllllmmnnnnnnnnnnnnoppopoqrqroroqoqoonnnnmnmlllmlllllllkkjlllkklkkkjjjjjkkkkkjjjjjj
(PID.TID 0006.0001) //    257 onnnmmnnnnnopoppoqqqppputsoooooonnnnnmmmnnnnnmnoommmmmmnnooooonmmmmmnnmmmmlggow........................................................................................++++++++++zzzywutttttttssssrrrrrqppnnnnmmmmmmmmmmmmllllllllllllllllkkkjjjjjjjiiiiiiiiiiiiijjjkljjklljjjjjjjkllklllllllnmmnnnnnnnnnnnnnnoqorstqrqrqpopoonnmmmmmmmmmmmmmlllkllllkjklllkkkjjjjjjkjjjjjjj
(PID.TID 0006.0001) //    256 nnnnnnnoooopopoopqrnnooonmmmmmmmnnnopnnnnuronmnonmmmmmmnoooonmmmmmmnnnmmmmlfgow........................................................................................+++++++++zzzywutttsssssssrrrrrrqqpoonnnmmmmmmmmlllllllllllllllllllllllkjjjjjjjjjjiiiiiiijjjjjjjjjjjllllllllllllllllllmnmmnnnnnnnnnnnoqpqqrqrqrrpqqponnnnnnmmmmmmmmnnmmllllllllkjlllllllkklklkjjjjjjlj
(PID.TID 0006.0001) //    255 nnnnnnnoooopqopqooonnnnnnnnmmnnnoonponnmnuxpnnnnnnmmmmmnnnonmmmmmmnnnmmmmmjehpx........................................................................................++++++++zzzyxvtsssssssssssssssrrqpoonoonmmmmllllllllllllllllllllllllllkjjjjjjjjjjjjiijjjjjjjjjkjjjjjjjkkllllllllllllllllmnnnnnnnnnnoopoqpqqqrqoopopqoooonommmmmmnnnmmlllllllllljlllllllllllkjjjjjjjjj
(PID.TID 0006.0001) //    254 nnnnnnnooppoopqonoonnnmmmmnnnnnooooonnmmnooonnmmnmmmmmmmmnmmmmmmmmnnnmmmmlidiqy........................................................................................++++++++zzyxvtssssssssssssssssrrqpnononmmmmlllllllllllllllllllllllllkjjjjjjjjjjjjjjjkmllllkjklljkkjjkkllllkklklllllllllnnnnnnnnnnnnnnnnnnoprrrrqqqqoooonnnnnnnnnnnmmmmmmlllllljjjjjlllllllkjjjjjjjjjj
(PID.TID 0006.0001) //    253 onnnnnnnopqppqponnnnnnmmmmnnnnnoonoonnnmnnnonnnmmmmmmmmmmmnonmmmmmnnnmmmmlhdjrz........................................................................................+++++++zzyxwusssrrrrrsssssrrrrqpponoonmmmmllllllllllllllllllllllllllkjjjjjjjjjjjjjjjjjjjjjjjjjjjkkkkjjjjjjjjklllllllmnmnnnnnnnnnnnnnnnoqqqqrqrqqqooooooooonnnnnnmmmmmmllllllllllllkllllllljjjjjjjjkkj
(PID.TID 0006.0001) //    252 ooooonoopqsqppoonnnnnnnmmnnnnnnnoooonnnnnnnnnnnmmmmmmmmmmmnonmmmmmnnnmmmmlgelt..........................................................................................++++++zyxvutssrrrrrrrssssrrqqppooonnnnnmllllllllllllllllmmllllllllkjjjjjjjjjjjjjjjjjkklljjjkkkkllllklkjlkjjlllllllllnlnnnnnnnnnnnnpqqpqqpqqqqqpppqopppooonnnnnmnnmmllllllllmmmllllllllllllljjjjjjjjj
(PID.TID 0006.0001) //    251 oooooooopqqqpooonnnnnnnnnnnnnnnnnnnnnnnnnnnnonnmmmmmmmmmmmnnnmmmmmmnmmmnmmfjqv.........................................................................................+++++zzzxvttssrrrrrrrrrsrrrqqqppppponmmmmmmmmmmmlllllllllmmmmllllllkjjjjjjjjjjjjjjjjjjjkkjjjjjjjjjjjjjjjjkkklllllllklllnnnnnnnnnnnnnnnnnoooqqsqqqoooooooonnnnnnnnmmmmmmmmmmmmmlllllllllllllkkjjjjjjjj
(PID.TID 0006.0001) //    250 oooopppopqqqoooonnnnnnnnnnnnnnnnnnnnnnnnnnnnnnnmmmmmmmmmmmnnnmmmmmmpmomnmlgmqx..........................................................................................++++zzywutssrrqqqqqqqrrrrqqqqqqqqpnnmmmmmmmmmmmllllllllmmmmmmlllllllllklkllkjjjjjjjjjjjkjjjkjkjjjjjjjjjkllkllllllmmmnmnnnnnnnnnnnnonppoqqqqqqqooooqooooopppqonnnnnnmmmmmmmmmllllllllllllllkkkjjjjjjl
(PID.TID 0006.0001) //    249 ooppppppppqqoooonnnnnnnnnnnnnnnnnnnnnnnnnnnmmmnnmmmmmmmmmmnnmmmmmmmnmmmmljhosz.........................................................................................+++++zzxwtssrrqqpppppqqrrqqqqqqqqqqonmmmmmmmmmmmmlllllllmmmmmmmmmmmmnnmmmlllkkjjjjjjjjjjjjjjkkkkjjjjjjjjjjjjjlllllnnnnnnnnnnnnnnnoqqoooopooprrqqpoooooqqqqoooonnnnnmmnmmmmmmmllmmlllllllllllkkkkjjjkl
(PID.TID 0006.0001) //    248 ppppqqqoqooooooonnnnnnnnoooonnnnnnnnnnnnnnpmmnnnnmmnnnmmmmnnmmmmmmmnmmmmkijqv+.........................................................................................++++++ywvtssrqqppooooopqpppqqqqqqponnmmmnnnnnmmmmmllllllmmnnnnnnmmmnnnoonmlllllkkjjjjjjjjjjjkkkkjjjjjjjjkklklllllkmmnnnnnnnnnnnnnnnnnonqoqopooooqprpqqqqqqqoonnnnnmmmmmmmmmmmlllmlllllllllllllllkkkkl
(PID.TID 0006.0001) //    247 qqppqpooppoooooonnnnnnnnnoonnnnnnnnnnnnnnonnonnnmmnnnnmmmmmmmmmmmmmmmmmlkglrx..........................................................................................+++++zyxvssrrqpoooooooopooopppoonnnnnnnnnnnnnnmmmmmmllllmmnqnnmnoooopqstonmmlmmmlkjjjjjjjjjjjkkjjjjjjjkkklllllllmmmmmnnnnnnnnnnnnnnnnnnnnnorrqqtrqrqqqqqqoooonnnnnmmmmmmmmmmmllllllllllllllllllllkkll
(PID.TID 0006.0001) //    246 qqqpqooooooooooonnnnnnnnnnnnnnnnnnnnnnnnnnnnnnnnmnnnnnmmmmmmmmmmmmmmmmmljhntz.........................................................................................++++++zyxussrqpoooonnnnnnnnnnnnnnnnnnnnnnnnmnmmmmmmmmmmlmmmnnnnoqpqqqqrtvurpomnonmlkkjjjjjjjjjjjjjjjjjkkkllllllllmmmmmmnnnnnnnnnnnnnnnooqqoqrsqrrssrqqqqqooooonnnnmmnmmmmmmmmmllllllllllllllllkjjkllll
(PID.TID 0006.0001) //    245 ppppoooooooooooonnnnnnnnnnnnnnnnnnnnnnnnnnnnnnnnnnnnnmmmmmmmmmmmmmmmmmmlijov........................................................................................++++++zyyywusrrqooooonnnnnnnnnnnnnnnnnnnnnnnmmmmmmmmnnnmmmmnnnnopqqqqqqqrtuutsqqqommlllkjjjjjjjjjjjjjjjkkkllllllllllmmmmmmnnnnnnnnnnnoooqqqqqqrtrrqqqqqqqqqpoooonnnnnnmmmmmmmmmmlllllllllllllkkkklllllll
(PID.TID 0006.0001) //    244 oppooooooooooooonnnnnnnnnnnnnnnnnnnnnnnnnnnnnnnnnnnnnmmmmmmnmmmmmmmmmllkglpx.......................................................................................++++++zzxwwvtssrqooooonnnnnnmmnnnnnnnnnonnmmmmlmmmnnoooonnnoqppoopqqonnopqrrrqrrqqpmmllllllkkjjjjjjjjjjjkkkllllllllllmmmmmmmnnnnnnnnooooopqqqqqqqqqqqqqqqqqpooooonnnnnnmmmmmmmmmmlllllllllllllkkkklllllll
(PID.TID 0006.0001) //    243 oooooooooooooooonnnnnonnnnnnnnnnnnnnnnnnnnnnnnnnnnnmmmmmmmmmmmmmllllllljglrx+.....................................................................................+++++++zyxvvttssrqooooonnnnnmmmnnnnnnnnnoomllllmmmnoqqqppoopqrrqpoooonnnnnqqooopqqoonmlllllllkkkkkkjjjjjkkkklllllllllllmmmmmmnnnnonnnoooooooopqqqqrrqrqqqooooooooonnnnnnmmmmmmmmmmllllllllkkklllllllllllll
(PID.TID 0006.0001) //    242 oooooooooooooooonnnnnnnnnnnnnnnnnnnnnnnnnnnnnnnnnmmmmmlmmmmmmmmlllllllljgnswz.....................................................................................++++++zzyxvttssrqppooooonnnnmmmmnnnnnnnooqnmlllmnoqrrrrrqpqrruurqpooonmnnnnnnnoppponmmlllllllllkkkkkkkkkkkkllllllllllllllmmmmnnnnnnnoooooooopqqqqqrqqqqqoqoooooonnnnnnnnnnmmmmmmmllllkkllkkkkkllllllllllmn
(PID.TID 0006.0001) //    241 oooooooooooooooonnnnnnnnnnnnnnnnnnnnnnnnnnnnnnnnmmmmmmlmmmmmmmllllllllkjgnsx+....................................................................................+++++++zzyxvttssrqppoooooonnnnmmmnnnnnnnoppmmlmmmnpqrstwvsrrstvvurrqponnmmmmmnnnopponnmllllllllllkkkkkkkkkkkllllllllllllllmmmmnnnnnnnoooooooooqqqqqqqqrqqqqoooonnnnoooooonnmmmmlllllllkkkkkkkkkllllllllllno
(PID.TID 0006.0001) //    240 poooooooooooooooonnnnnnnnnnnnnnnnnnnnnnnnnnnnnommmmmmmmmmmmlllllllmlllkigosz+....................................................................................+++++++zyxxvttssrqpppppoooonnnnmmnnnnnnoooonmmmnnoqrtuvxwvvvvuvwwvrrqponnmmnmnnopppoonmlllllllllllkkkkkkkkkklllllllllllllmmmmnnnnnnnnooooooopqqqqqqqqqqqpoooooooonqroqpqnnnmmmllllllllllllkkkjjllllkkkklmnq
(PID.TID 0006.0001) //    239 pooonoooooooooooonnonnnnnnnnnnnnnnnnnnnnnnnnonnmmmmmmmmmlllllllmmmnmmlkiios..................................................................................++.++++++++zxxvutssrqqpppppppooonnnnnnnnnnnnnnnmmmnoopqrttvwxxxwwvvwxwusrpoonnnnnnopqqrrpnmllllllllllllkkkkkkkklllllllllllllmmmmnnnnnnnnnoooooooooooqqqqrqqqpooooooooorsssnnmnnnnllllllllllllllkkkklllkkkllmmor
(PID.TID 0006.0001) //    238 pooonoooooooonoonoonnnnnnnnnnnnnnnnnnnnnnnnnnnmmmmmmmmmlllllllmmmnmmmlkihpt.................................................................................+++.+++++++yxwutssrqpppppppppppoonnnnnnnnnnnnnmmmmmnopqqrstvvxxxxxvvwxxvutqppoonnnnnoqrsrpnmllllllllllllllllllllllllllllllllmmmmnnnnnnnnnoooqooopqqqpqqqqqqqqppoooooooopqrmmmmmmllllllllllllllllllllllkkkllmnnoo
(PID.TID 0006.0001) //    237 poooooooooonoooonnonnnnnnnnnnnnnnnnnnnnnnnnnnnmmmmmmmmmllllllmmmmmmmmmkiipt.................................................................................++.++++++zywutsrrqppppppppppppppooonnnnnnnnnnnmmlmnopqqrstvvvxxwxwttxxxwwvttrppnmmmnopqrsqnmlllllllllllllllllllllllllllllllmmmmnnnnnnnnonoooqooooqqqqqqqqqqqqqqpooooonnnmmmlllllllllllllllllllllmllllllkmlmnoqon
(PID.TID 0006.0001) //    236 pooooooooonooononnnnnnnnnnnnnnnnnnnnnnnnnnnnnmmmmmmmmmmmlllllmmmmmnnnmlijpu+...............................................................................++.++++++zxvtsrrqqppppppppppppppooooonnnnnnnnnnnnlmmopqqrstsstvxwxxuqtwxxxwvvtsrommmnooqqrrqnmllllllllllllllllllllllllllllmmnnnnnnnnnnnnnnnoooooopqqqqqqqqqqqqpqoooooonnmlllllllllllllmmmmmmllllmnmlllllllllnoqnl
(PID.TID 0006.0001) //    235 pooooooooonooonnnnnnnnnnnnnnnnnnnnnnnnnnnnmmmmmmmmmmmmmmmmlmmmmmmnnnnmlikqt+..............................................................................+++++++++zwutsrrqqpppppoooooooooooooooonnnnnnnnnnnllmoppppqqqqrtxxwxxwwrsvvvtttsrqnmmmnnoqrsqnmlllkkklllllllllllllllllllmmmmmnnnnnnnnnnnnnoooooooopoqqqqqqqqqoooooooooonmllllllllllllmmmmmmmmmmlmmnllllllmonoqonll
(PID.TID 0006.0001) //    234 ooooooooooonnnnnnnnnnnnnnnnnnnnnnnnnnnnnmnmmmmmmmmmmmmmmmmmmmmmmmnnnnnlgkps+.............................................................................+++++++++zxvtsrrqqppppooooooooooooooononnnnnnnnnnnmlmmnonnnooopqtvttvvvtqrttrrrqrqonmmnnnopqrpnmlllkkkkkllllllllllllllmmmmmmmnnnnnnnnnnnnnnnnnonnoooopoqqqqrqqqooooooonnmmllllllllllmmmmmmmmmmmmmmmmllllmmnppoomlll
(PID.TID 0006.0001) //    233 opooooooooonnnnnnnnnnnnnnnnnnnnnnnnnnnnnnnmmmmmmmmmmmmmmmmmmmmmmnnnnnnlhkotz...............................................................................+++++++zvutsrrqqpppoooonnnoooooooonnnnnnnnnnnnnnmlmmnnnmmnnopqrsssrssrqqtroqqnnnnnnmnnnopqqonmlllkkkkkllllllllllkllmmmmmmmnnnnnnnnnnnnnnnoonoooopqqqqqqqqqqqqpoooonnnmmmmlllmmmmmmmmmmmmmmmmmmmopmllmmmnoqpnllmll
(PID.TID 0006.0001) //    232 oooooooooooonnnnnnnnnnnnnnnnnnnnnnnnnnnnnnmmmmmmmmmmmmmmmmmmmmmnnnnnnnlhlpuy.............................................................................+++++++++xvttrrqqppppoonnnnnnnnnnonnnnnnnnnnnmmmmnllmmmnmmmmmnooqqsrqqqqooqpnuqnnnnnnnnnnopqqonmlllkkkklllljjjjkjllllmnnnnnnnnnnnnnnnoooooooooooppqqqqqqqrrrqqqoooonnnoonmmmmmmmmmmmmmmmmmmmmmmnnqtnlmmmnnoonlmtsol
(PID.TID 0006.0001) //    231 oooooooopooonnnnnnnnnnnnnnnnnnnnnnnnnnnnnnmmmmmmmmmmmmnmmmmmmmmmnnnnnnjinsty............................................................................++++++++zywvttsrqqpppooonnnnnnnnnnnnnnnnnnnnmmllllmllllmmmlllmmnpqrrqppoonnonnonmmnnnnnnnnopqqonnmlllkkklllmlllkklkkklmnnnnnnnnnnnnnnooooooooooopppqqqqqqqqqqqqoooooooonnnmmmmmmmmmmmmmmnonommmnonnnmmmnnponnmmoutqm
(PID.TID 0006.0001) //    230 oooooooooooonnnnnnnnnnononnnonnnnnnnnnnnnnmmmmmmmmmmmmmmmmllmmmnmmnpomjjqssy.....................................................+......................++++++++zxwvutrrqppppoonnnnnnnmmmmmmmmmmmmmmlllllllllllllmllllnoopqqqoonnnnnnmmnmnnnnnnnnnooqrqonmlllkkklllllkkkkllllllmmnnnnnnnonnnoooooooooooppqopqqqqqrqrqqpooooooonnnnnmmmmmmmnnnnmmnnnnmmmnnnnnnnonnnnnnmnptupm
(PID.TID 0006.0001) //    229 oooooooonoooonnnnnnnnnonnonnoonnnnnnnnnnnmmmmmmmmmmmmmmmmmllllmmmnsspmjkqsuz...........................................................................++++++++++ywwvtrqqpppooonnnnnnmmmmmmmmmmmllllllllllllllllllllklmmnooqooonmmmmmmnnnnnnnnnnooopqrponmlllkkkllmmllllllmmnmmmmnnnnnnnnnnnnonoooooooooppopqqqqqqqqqpooooqponnnnnnmmmmmmnnnnnmmmmmmmmmmnnnnnptpnnnnnnortuol
(PID.TID 0006.0001) //    228 oooooonnnnnnnnnnnnnnnnnooonnnnnnnnnnnnnnnnnmmmmnnmnnonmnmmlllmmmnopoomijqtx.....................................................+......................++++++++++zwvusrqqpppooonnnnnnmmmmmmmllllllllllllllkkklllllllllllmmnoppnmmmmmmmnnnnnnnnnoooqqqqpnmmmllkkkllmmmlllmmmnnmmmnnnnnnnnnnnnnnnnnnnoooopopopoqqqrqrqqpqoqoonnnnnnnnmmmmmnnnnnnmmmmmmmmmnnnnnnptpnoonnnoqpoml
(PID.TID 0006.0001) //    227 ooooonnnnnnnnnnnnnnnnnooonnnnnnnnnnnnnnnnnnnmnppropvtpupmmlmmmmnnnnonljmstx....................................................++....................+++++++++++zxwvtrqqqppoooonnnnnnmmmmmmmllllllllllllkkkkkllllllllllllmnmmnmmmmmmmnnnnnnnnnoqrrqqpoonmmmlllkkllmnnmlmnnnnnnnnnnnnnnnnnnnnnnnnnnnnopoooooqqqqqqqqqpoooooonnnnnnnnmmmmmnnnnnmmmmmmmmmnnnnnoooonnnoonnnmmmll
(PID.TID 0006.0001) //    226 oooonnnnnnooooonnnnnnnnnnnnnnnnnnononopvpoqspuzyxopwqopnmmmmmmmnnnnnljjmtw++...................................................+....................+++++++++zyyxvttrqqqppoonnnnmmmmmmmmmmmmlllllllllllkkkkkkllllllllllllmmmmmmmmmmmmnnnnnmmnnoqssqqoonnmmmmllkllllllllmnnnnnnnnnnnnnnnnnnnnnnnnoonnnonooooqqqqqqqqqopppnnnnnnnnnmmmmmmmnnnnmmmmmmmmmnnnnnpqqoonnnoopromllll
(PID.TID 0006.0001) //    225 oonnnnnnnnooooonnnnnnnnnnnnnnnnnopoonostqopppqrqonnnmnmmmmmmmmmnnnnlljjqux+.....................................................+..................+++++++++yxvuutsrrqppoonnmmmllllmmmmmmmlllllllllllkkkkkkkklllllllllllllllllllmmmmmmmmmmmmnnoqrtrqppnnnnnnmllllllllllmnnnnnnnnnnnnnnnnnnnnnnoooooooooopqoqqqqrqqqqpppqoonnnnnnnmmmmnnnmmmmmmmmmmmmmnnnnnpsronnnmnqusnmlllk
(PID.TID 0006.0001) //    224 oonnnnnnnooooooonnnnnnnnnonnnnnnooonnnoonnnnnnnnnmmmmmmmmmmmmmmnnnnmljnsvz.........................................................................++++++++zxuttsrrqqpoonnnmmllllllllllllllllllllllkkkkkkkkkklllllllllllllllllllmmmmmmnmmmmmnnopqqrqqnnnnnnnnnnnnnnnnnnnnnnnnnnnnnnnnnnnnnnnnnnnonoooooooooqqqqqqqqpoooooooonnnnnnmnnnnnmmmmmmmmmmmmmnnnnoqronnmmmmnqqmllllk
(PID.TID 0006.0001) //    223 oonnnnnnnnoooooonnnnnnnnnnnnnnnnnnnnnnnnnnnnnnnnmmmmmmnnmmmmmmnnnmljjmpvvy......................................................++................++++++++zxvtrrrqqpoonnnmlllllllkkkkkkkkkkkkkkkkkkkkkkkkkkkkkkkkklllllllllllllllllllllllllmmnooooonnnnmnnnnnnnnnnnnnnnnnnnnnnnnnnnnnnnnnnnnnnoooooooqopoqqrrqqqqqqoooooooonnnnnnnnnnnnnmmmmmmmmmmmmmnooopqtrnmmmllnommlllkk
(PID.TID 0006.0001) //    222 nonnnnnnnnnooooonnnnnnnnnnnnnnnnnnnnnnnnnnmnnnnmmmmmmmnnnnmmnnmmmmkkkpsxxy......................................................++....+.........+++++++++zxvutrqqppoonnmmlllkkkkkkkkkkkkkkkkkkkkkkkkkkkkkkkkkkkkkkkkllllllllllllllllllllllmmnnnnnnnmllmlmnnnnnnnnnnnnnnnnnnnnnnnnnnnnnnnnnnnnnoooooooooqpqqqqqqqqppoonnnnnnnnnnnnnnnnnnnmmmmmmmmmmmmnqtqprtsnmmmnmlllllllkkk
(PID.TID 0006.0001) //    221 nnnnnnnnnnnoooooonnnnnnnnnnnnnnnnnnnnnnnmmmnnnnnmmmmmmnnnnmmmmmnmljjpstxz..........................................................+..++.++++..++++++++++zwutsrqpoonnmmlllkkkkkkkkkkkkkkkkkkkkkkkkkkkkkkkkkkkkkkkkkkkllllllllllmmmmllllllllmmnoooooqqpolmnnnnnonnnnnnnnnnnnnnnnnnnnnnoonnnnonnonnnnqqqpqpqqqqqqqqqpoooooonnnnnnnnnnnnnnnmmmmmmmmmnmnsqtqqrrnmmmmmmlllnmlkkkk
(PID.TID 0006.0001) //    220 nnnnnnnnnnnnooooonnnnnnnnnnnnnnnnnnnonnnnmnnnnnnnnnnnnnnnnnmmmmmmljkqtxy+............................................................++++++++++++++++++zzwutsrqpoonnmmlllkkkkkkkkkkkkkkkkkkjjjjjjjjkkkkkkkkkkkkkkkkkkklllllllllmmmmllllllllllmmmlnoonnlmmnnnnnnnnnnnnnnnnnnnoooonnooooonnnmllllllmnnqqqqqqqpoonnnnnnnnnnnnnnnnnnnnnnnnnnmmmmnntnnnnnqqrqponmlmmmmlllllkkkkkk
(PID.TID 0006.0001) //    219 nnnnnnnnnnnnooooonnnnnnnnnnnnnnnnnnnnnnnnnnnnnnnnnnnnnnnnnnmmmmmmkjosuz+.............................................................++++++++++++++++++zxvtsrqpponnmmlllkkkkkkkkkkkkkkkkkjjjjjjjjjjjjkkkkkkkkkkkkkkkkkkkkllllllllmnnnnlllllllllllmmmmmlmmnnnnnnnnnnnnnnnnnnnnnnnnnooopoonnmmmmnnnnnnqqqqqqqoooooooooqonnnnnnnnnnnnnnnnnnnnnnnoonnnnortsqommlllmmlllkkkkkkkkk
(PID.TID 0006.0001) //    218 nnnnnnnnnnnnooooonnnnnnnnnnnnnnnnnnnnnnnnnnnnnnnnnnnnnnnnnnmmmmmljkqtx++.............................................................+++++++++++++++++zyvtsrqqponnmmlllkkkkkkkkkkkkkkkkkjjjjjjjjjjjjjjjkkkjjjjjkkkkkkkkkkkkkkllllllllllllllllllllmnnmmmmnnnnnnnnnnnnnnnnnnnnnnnonoooopoooooqooqnnqqqtrrqqqpppqooqoooqonnnnnnnnnnnnnnnnnnnnnnnnnnnnqqoopqonmlllllllkkkkkkkkkk
(PID.TID 0006.0001) //    217 nnnnnnnnnnnnnoooonnnnnnnnnnnnnnnnnnnnnnnnnnnnnnnnnnnnnnnnnnnmmmlkkmtxzz.............................................................+++++++++++++++++zyvtsrqpponnmmlllkkkkkkkkkkkkkkkjjjjjjjjjjjjjjjjjjjjjjjjjjjjkkkkkkkkkkkkklllllllllllllllllllmmmmmmmnnnmmmmmnnnnnnnnnnnnnnnnnonnoooooppqppqpqqqqqrqqqqooooooooooonnnnnnnnnmmnnnnnnnnnnnnnmnnnnnnnnopommlllllllkkkkkkkkkk
(PID.TID 0006.0001) //    216 nnnnnnnnnnnnnoopnlmnnnnnnnnnnnnnoonnnnnnnnnnnnnnnnnnnnnnnnnnnmmlklqwzz+.............................................................++++++++++++++++zywtsrqpponnmmlllkkkkkkkkkkkjjjjjjjjjjjjjjjjjjjjjjjjjjjjjjjjjkkkkkkkkkkkkkllllllllllllmmmlllllmmmlmmmmmmmmmmmmmmmnnnnnnnnnnnnnnnnnnnnnoooppqqqqqqqqqqqqppppqooooooonnnnnnnmmmmnmmnnnnnonnnnmmllmmmnnnmmllllllkkkkkkjjjjj
(PID.TID 0006.0001) //    215 nnnnnnnnnnnnnnnnmnnnnnnnnnnnnnnoonnnnnnnnnnnnnnnnnnnnnnnnnnnnmmllnsxz++................................................................++++++++++++zywtsrqpponnmmlllkkkkkkkkkkjjjjjjjjjjjjjjjjjjjjjjjjjjjjjjjjjjjjjkkkkkkkkkkkllllllllllmmmmmlllllmlllllmmmmmmmmmmmmmmmnnnnnnnnnnnnonooooooooooqqqqqqqqqqqqpppppooooooooonnnnmmmmmnnnnnoooqsqnnnmmllmmmmmmmlllllkkkjjjjjjjjj
(PID.TID 0006.0001) //    214 nnnnnnnnnnnnnnnnnnnnnnnnnnnnnnnnnnnnnnnnnnnnnnnnnnnnmmmnnnnnnnmllntx++.................................................................+++++++++++zywutrrpponnmmllkkkkkkkkkjjjjjjjjjjjjjjjjjjjjjjjjjjjjjjjjjjjjjjjjjjkkkkkkkkkllllllllllmmmmmlllllmllllllllllllllmmmmmmnnnnnnnnnnnnnnnnnnnnnnnoooooqqqqqqqqqpqoqooooooopponnnmmnnnnnnooooopqonnonnnnnnnmmmmlllkkjjjjjjjjjjkj
(PID.TID 0006.0001) //    213 nnnnnnnnnnnnnnnnnnnnnnnnnnnnnnnnnnnnnnnnnnnnnnnnnnnmmmmmnnnnnmlllswz++.................................................................+++++++++zyxwutrppponnmmllkkkkkkjjjjjjjjjjjjjjjjjjjjjjjjjjjjjjjjjjjjjjjjjjjjjjjkkkkkkkkklllkllllllmmmlllllmmllllllllllllllllmmmmnnnnnnnnnnnnnnnonooooooooqqpqqqqqqqqqqqqqqqpoooopqqonnnnnnnooooooonnnnqnnnonnnnoonnmmlkkjjjjjjjjjjknj
[...]
    46 |UVELMASS|     -2 |      3 |   1 |       0 |       0 |
    47 |VVELMASS|     -3 |      2 |   1 |       0 |       0 |
    23 |ETAN    |      4 |      0 |   1 |       0 |
    24 |ETANSQ  |      5 |      0 |   1 |       0 |
    25 |DETADT2 |      6 |      0 |   1 |       0 |
------------------------------------------------------------------------
Global & Regional Statistics diagnostics: Number of lists:     1
------------------------------------------------------------------------
listId=   1 ; file name: dynStDiag
 nFlds, nActive,       freq     &     phase        |                    
    5  |    5  |     -7200.000000         0.000000 |
 Regions:   0
 diag# | name   |   ipt  |  iMate |    Volume   |   mate-Vol. |         
    23 |ETAN    |      1 |      0 | 0.00000E+00 |
    24 |ETANSQ  |      2 |      0 | 0.00000E+00 |
    25 |DETADT2 |      3 |      0 | 0.00000E+00 |
    30 |UVEL    |      4 |      0 | 0.00000E+00 |
    31 |VVEL    |      5 |      0 | 0.00000E+00 |
------------------------------------------------------------------------
(PID.TID 0006.0001) // =======================================================
(PID.TID 0006.0001) // Model current state
(PID.TID 0006.0001) // =======================================================
(PID.TID 0006.0001) 
(PID.TID 0006.0001) SOLVE_FOR_PRESSURE: putPmEinXvector =    F
 cg2d: Sum(rhs),rhsMax =  -2.25791876329922E+01  1.14495937863696E-01
(PID.TID 0006.0001)      cg2d_init_res =   5.57595043933257E+00
(PID.TID 0006.0001)      cg2d_iters(min,last) =      -1     150
(PID.TID 0006.0001)      cg2d_last_res =   9.77527241485838E-11
 Compute Stats, Diag. #    23 "ETAN    " (list#  1) Parms "SM      M1      ", vol(  0 )= 3.638E+14
 Compute Stats, Diag. #    24 "ETANSQ  " (list#  1) Parms "SM P    M1      ", vol(  0 )= 3.638E+14
 Compute Stats, Diag. #    25 "DETADT2 " (list#  1) Parms "SM      M1      ", vol(  0 )= 3.638E+14
 Compute Stats, Diag. #    30 "UVEL    " (list#  1) Parms "UUR     MR      ", vol(  0 )= 1.312E+18
 Compute Stats, Diag. #    31 "VVEL    " (list#  1) Parms "VVR     MR      ", vol(  0 )= 1.307E+18
 cg2d: Sum(rhs),rhsMax =  -1.13347835681965E+02  2.28078926137901E-02
(PID.TID 0006.0001)      cg2d_init_res =   2.61704976326131E+01
(PID.TID 0006.0001)      cg2d_iters(min,last) =      -1     161
(PID.TID 0006.0001)      cg2d_last_res =   9.75641154209793E-11
 cg2d: Sum(rhs),rhsMax =  -1.68539403722215E+02  1.53389961465672E-02
(PID.TID 0006.0001)      cg2d_init_res =   5.78743115320957E+00
(PID.TID 0006.0001)      cg2d_iters(min,last) =      -1     162
(PID.TID 0006.0001)      cg2d_last_res =   8.70908513980654E-11
 cg2d: Sum(rhs),rhsMax =  -1.79193524892269E+02  1.44270015660108E-02
(PID.TID 0006.0001)      cg2d_init_res =   2.22298772893337E+00
(PID.TID 0006.0001)      cg2d_iters(min,last) =      -1     158
(PID.TID 0006.0001)      cg2d_last_res =   9.31586527048822E-11
 cg2d: Sum(rhs),rhsMax =  -1.75735974963064E+02  1.47108482755629E-02
(PID.TID 0006.0001)      cg2d_init_res =   1.25762142163851E+00
(PID.TID 0006.0001)      cg2d_iters(min,last) =      -1     155
(PID.TID 0006.0001)      cg2d_last_res =   9.27097437350873E-11
 cg2d: Sum(rhs),rhsMax =  -1.71103509042002E+02  1.51091306000345E-02
(PID.TID 0006.0001)      cg2d_init_res =   8.71193060495200E-01
(PID.TID 0006.0001)      cg2d_iters(min,last) =      -1     155
(PID.TID 0006.0001)      cg2d_last_res =   8.67950680877768E-11
 cg2d: Sum(rhs),rhsMax =  -1.68495303008664E+02  1.53430108618924E-02
(PID.TID 0006.0001)      cg2d_init_res =   6.26757047482732E-01
(PID.TID 0006.0001)      cg2d_iters(min,last) =      -1     154
(PID.TID 0006.0001)      cg2d_last_res =   8.54152745220329E-11
 cg2d: Sum(rhs),rhsMax =  -1.67453109838588E+02  1.54385025559199E-02
(PID.TID 0006.0001)      cg2d_init_res =   4.75148745523207E-01
(PID.TID 0006.0001)      cg2d_iters(min,last) =      -1     152
(PID.TID 0006.0001)      cg2d_last_res =   9.30160196696174E-11
 cg2d: Sum(rhs),rhsMax =  -1.67035955761563E+02  1.54770585318174E-02
(PID.TID 0006.0001)      cg2d_init_res =   3.87725735721705E-01
(PID.TID 0006.0001)      cg2d_iters(min,last) =      -1     151
(PID.TID 0006.0001)      cg2d_last_res =   9.32264585591224E-11
 Compute Stats, Diag. #    23 "ETAN    " (list#  1) Parms "SM      M1      ", vol(  0 )= 3.638E+14
 Compute Stats, Diag. #    24 "ETANSQ  " (list#  1) Parms "SM P    M1      ", vol(  0 )= 3.638E+14
 Compute Stats, Diag. #    25 "DETADT2 " (list#  1) Parms "SM      M1      ", vol(  0 )= 3.638E+14
 Compute Stats, Diag. #    30 "UVEL    " (list#  1) Parms "UUR     MR      ", vol(  0 )= 1.312E+18
 Compute Stats, Diag. #    31 "VVEL    " (list#  1) Parms "VVR     MR      ", vol(  0 )= 1.307E+18
 cg2d: Sum(rhs),rhsMax =  -1.66686007201603E+02  1.55095518072673E-02
(PID.TID 0006.0001)      cg2d_init_res =   3.31198892665601E-01
(PID.TID 0006.0001)      cg2d_iters(min,last) =      -1     150
(PID.TID 0006.0001)      cg2d_last_res =   9.27230669226344E-11
 cg2d: Sum(rhs),rhsMax =  -1.66226705984064E+02  1.55524062691082E-02
(PID.TID 0006.0001)      cg2d_init_res =   2.88820893317685E-01
(PID.TID 0006.0001)      cg2d_iters(min,last) =      -1     149
(PID.TID 0006.0001)      cg2d_last_res =   9.18700606864258E-11
 cg2d: Sum(rhs),rhsMax =  -1.65672443052099E+02  1.56044373862874E-02
(PID.TID 0006.0001)      cg2d_init_res =   2.55273789258615E-01
(PID.TID 0006.0001)      cg2d_iters(min,last) =      -1     151
(PID.TID 0006.0001)      cg2d_last_res =   8.94240043875620E-11
 cg2d: Sum(rhs),rhsMax =  -1.65081649567260E+02  1.56602824784984E-02
(PID.TID 0006.0001)      cg2d_init_res =   2.29550406167163E-01
(PID.TID 0006.0001)      cg2d_iters(min,last) =      -1     151
(PID.TID 0006.0001)      cg2d_last_res =   8.72880067235639E-11
 cg2d: Sum(rhs),rhsMax =  -1.64493806377813E+02  1.57162468372941E-02
(PID.TID 0006.0001)      cg2d_init_res =   2.11478334665285E-01
(PID.TID 0006.0001)      cg2d_iters(min,last) =      -1     152
(PID.TID 0006.0001)      cg2d_last_res =   9.38963073343035E-11
 cg2d: Sum(rhs),rhsMax =  -1.63921029557040E+02  1.57711629265981E-02
(PID.TID 0006.0001)      cg2d_init_res =   1.99790519993687E-01
(PID.TID 0006.0001)      cg2d_iters(min,last) =      -1     344
(PID.TID 0006.0001)      cg2d_last_res =   9.90593302757657E-11
 cg2d: Sum(rhs),rhsMax =  -1.63359154858556E+02  1.58254079269582E-02
(PID.TID 0006.0001)      cg2d_init_res =   1.91758320834221E-01
(PID.TID 0006.0001)      cg2d_iters(min,last) =      -1    1015
(PID.TID 0006.0001)      cg2d_last_res =   9.97230421969551E-11
 cg2d: Sum(rhs),rhsMax =  -1.62799066688953E+02  1.58798531024693E-02
(PID.TID 0006.0001)      cg2d_init_res =   1.84577412541394E-01
(PID.TID 0006.0001)      cg2d_iters(min,last) =      -1    1058
(PID.TID 0006.0001)      cg2d_last_res =   9.93690931095078E-11
 Compute Stats, Diag. #    23 "ETAN    " (list#  1) Parms "SM      M1      ", vol(  0 )= 3.638E+14
 Compute Stats, Diag. #    24 "ETANSQ  " (list#  1) Parms "SM P    M1      ", vol(  0 )= 3.638E+14
 Compute Stats, Diag. #    25 "DETADT2 " (list#  1) Parms "SM      M1      ", vol(  0 )= 3.638E+14
 Compute Stats, Diag. #    30 "UVEL    " (list#  1) Parms "UUR     MR      ", vol(  0 )= 1.312E+18
 Compute Stats, Diag. #    31 "VVEL    " (list#  1) Parms "VVR     MR      ", vol(  0 )= 1.307E+18
 cg2d: Sum(rhs),rhsMax =  -1.62232861202834E+02  1.59352750427521E-02
(PID.TID 0006.0001)      cg2d_init_res =   1.76749087239882E-01
(PID.TID 0006.0001)      cg2d_iters(min,last) =      -1    1085
(PID.TID 0006.0001)      cg2d_last_res =   9.98702670936855E-11
 cg2d: Sum(rhs),rhsMax =  -1.61655812568468E+02  1.59921578022122E-02
(PID.TID 0006.0001)      cg2d_init_res =   1.68228699918603E-01
(PID.TID 0006.0001)      cg2d_iters(min,last) =      -1    1041
(PID.TID 0006.0001)      cg2d_last_res =   9.97588805457050E-11
 cg2d: Sum(rhs),rhsMax =  -1.61066338755840E+02  1.60506862216492E-02
(PID.TID 0006.0001)      cg2d_init_res =   1.59815659601339E-01
(PID.TID 0006.0001)      cg2d_iters(min,last) =      -1    1083
(PID.TID 0006.0001)      cg2d_last_res =   9.88348523710851E-11
 cg2d: Sum(rhs),rhsMax =  -1.60465386869400E+02  1.61107969430431E-02
(PID.TID 0006.0001)      cg2d_init_res =   1.52457335945902E-01
(PID.TID 0006.0001)      cg2d_iters(min,last) =      -1    1009
(PID.TID 0006.0001)      cg2d_last_res =   9.98637360942160E-11
 cg2d: Sum(rhs),rhsMax =  -1.59855726660764E+02  1.61722405461647E-02
(PID.TID 0006.0001)      cg2d_init_res =   1.46710426792109E-01
(PID.TID 0006.0001)      cg2d_iters(min,last) =      -1    1080
(PID.TID 0006.0001)      cg2d_last_res =   9.96344333560174E-11
 cg2d: Sum(rhs),rhsMax =  -1.59241176995250E+02  1.62346530779338E-02
(PID.TID 0006.0001)      cg2d_init_res =   1.42509559807618E-01
(PID.TID 0006.0001)      cg2d_iters(min,last) =      -1    1023
(PID.TID 0006.0001)      cg2d_last_res =   9.99455703203675E-11
 Computing Diagnostic #    48 "WVELMASS" (list#  1) Parms "WM      LR      ", Count=       1
 Post-Processing Diag #    49 "PhiVEL  " (list#  1) Parms "SMR P   MR      "
   from diag: UVELMASS (#    46) Cnt=       1 and diag: VVELMASS (#    47) Cnt=       1
 diag_cg2d (it=       22) a2dNorm,x2dNorm= 5.134525E-07 , 3.399538E-02 ; Criter= 1.00E-10
 diag_cg2d : k=   1 , it=  4997  5000 ; ini,min,last_Res= 4.0133062E+01 2.7405189E-05 2.7523375E-05
  get Post-Proc. Diag #     50  PsiVEL   from previous computation of Diag #     49
 Computing Diagnostic #    46 "UVELMASS" (list#  2) Parms "UUr     MR      ", Count=       1
             Vector  Mate for "UVELMASS" :  Diagnostic #     47 "VVELMASS" exists
 Computing Diagnostic #    47 "VVELMASS" (list#  2) Parms "VVr     MR      ", Count=       1
             Vector  Mate for "VVELMASS" :  Diagnostic #     46 "UVELMASS" exists
 Computing Diagnostic #    23 "ETAN    " (list#  2) Parms "SM      M1      ", Count=       1
 Computing Diagnostic #    24 "ETANSQ  " (list#  2) Parms "SM P    M1      ", Count=       1
 Computing Diagnostic #    25 "DETADT2 " (list#  2) Parms "SM      M1      ", Count=       1
 cg2d: Sum(rhs),rhsMax =  -1.58625749292528E+02  1.62976394171174E-02
(PID.TID 0006.0001)      cg2d_init_res =   1.39330219847622E-01
(PID.TID 0006.0001)      cg2d_iters(min,last) =      -1    1092
(PID.TID 0006.0001)      cg2d_last_res =   9.87330665110372E-11
(PID.TID 0006.0001) %CHECKPOINT        24 ckptA
(PID.TID 0006.0001)   Seconds in section "ALL                    [THE_MODEL_MAIN]":
(PID.TID 0006.0001)           User time:   295.58259746804833
(PID.TID 0006.0001)         System time:   5.1337558031082153
(PID.TID 0006.0001)     Wall clock time:   482.80646491050720
(PID.TID 0006.0001)          No. starts:           1
(PID.TID 0006.0001)           No. stops:           1
(PID.TID 0006.0001)   Seconds in section "INITIALISE_FIXED       [THE_MODEL_MAIN]":
(PID.TID 0006.0001)           User time:  0.62378097325563431
(PID.TID 0006.0001)         System time:   4.1440000757575035E-002
(PID.TID 0006.0001)     Wall clock time:   1.8043138980865479
(PID.TID 0006.0001)          No. starts:           1
(PID.TID 0006.0001)           No. stops:           1
(PID.TID 0006.0001)   Seconds in section "THE_MAIN_LOOP          [THE_MODEL_MAIN]":
(PID.TID 0006.0001)           User time:   294.95879846811295
(PID.TID 0006.0001)         System time:   5.0923078507184982
(PID.TID 0006.0001)     Wall clock time:   481.00212121009827
(PID.TID 0006.0001)          No. starts:           1
(PID.TID 0006.0001)           No. stops:           1
(PID.TID 0006.0001)   Seconds in section "INITIALISE_VARIA    [THE_MAIN_LOOP]":
(PID.TID 0006.0001)           User time:  0.39182204008102417
(PID.TID 0006.0001)         System time:   5.0768997520208359E-002
(PID.TID 0006.0001)     Wall clock time:   1.2929360866546631
(PID.TID 0006.0001)          No. starts:           1
(PID.TID 0006.0001)           No. stops:           1
(PID.TID 0006.0001)   Seconds in section "MAIN LOOP           [THE_MAIN_LOOP]":
(PID.TID 0006.0001)           User time:   294.56695950031281
(PID.TID 0006.0001)         System time:   5.0415338501334190
(PID.TID 0006.0001)     Wall clock time:   479.70915699005127
(PID.TID 0006.0001)          No. starts:           1
(PID.TID 0006.0001)           No. stops:           1
(PID.TID 0006.0001)   Seconds in section "MAIN_DO_LOOP        [THE_MAIN_LOOP]":
(PID.TID 0006.0001)           User time:   294.56682848930359
(PID.TID 0006.0001)         System time:   5.0415280684828758
(PID.TID 0006.0001)     Wall clock time:   479.70898938179016
(PID.TID 0006.0001)          No. starts:          24
(PID.TID 0006.0001)           No. stops:          24
(PID.TID 0006.0001)   Seconds in section "FORWARD_STEP        [MAIN_DO_LOOP]":
(PID.TID 0006.0001)           User time:   294.56648433208466
(PID.TID 0006.0001)         System time:   5.0415101721882820
(PID.TID 0006.0001)     Wall clock time:   479.70865917205811
(PID.TID 0006.0001)          No. starts:          24
(PID.TID 0006.0001)           No. stops:          24
(PID.TID 0006.0001)   Seconds in section "DO_STATEVARS_DIAGS  [FORWARD_STEP]":
(PID.TID 0006.0001)           User time:   2.6319026947021484E-002
(PID.TID 0006.0001)         System time:   9.6899420022964478E-003
(PID.TID 0006.0001)     Wall clock time:   7.0948362350463867E-002
(PID.TID 0006.0001)          No. starts:          48
(PID.TID 0006.0001)           No. stops:          48
(PID.TID 0006.0001)   Seconds in section "LOAD_FIELDS_DRIVER  [FORWARD_STEP]":
(PID.TID 0006.0001)           User time:   3.0646324157714844E-003
(PID.TID 0006.0001)         System time:   1.5049569308757782E-002
(PID.TID 0006.0001)     Wall clock time:   4.5230865478515625E-002
(PID.TID 0006.0001)          No. starts:          24
(PID.TID 0006.0001)           No. stops:          24
(PID.TID 0006.0001)   Seconds in section "EXTERNAL_FLDS_LOAD [LOAD_FLDS_DRIVER]":
(PID.TID 0006.0001)           User time:   1.9621849060058594E-004
(PID.TID 0006.0001)         System time:   5.4925680160522461E-005
(PID.TID 0006.0001)     Wall clock time:   2.0813941955566406E-004
(PID.TID 0006.0001)          No. starts:          24
(PID.TID 0006.0001)           No. stops:          24
(PID.TID 0006.0001)   Seconds in section "DO_ATMOSPHERIC_PHYS [FORWARD_STEP]":
(PID.TID 0006.0001)           User time:   1.6689300537109375E-004
(PID.TID 0006.0001)         System time:   1.6927719116210938E-005
(PID.TID 0006.0001)     Wall clock time:   1.9931793212890625E-004
(PID.TID 0006.0001)          No. starts:          24
(PID.TID 0006.0001)           No. stops:          24
(PID.TID 0006.0001)   Seconds in section "DO_OCEANIC_PHYS     [FORWARD_STEP]":
(PID.TID 0006.0001)           User time:   3.0420064926147461E-002
(PID.TID 0006.0001)         System time:  0.22391791641712189
(PID.TID 0006.0001)     Wall clock time:   1.0064575672149658
(PID.TID 0006.0001)          No. starts:          24
(PID.TID 0006.0001)           No. stops:          24
(PID.TID 0006.0001)   Seconds in section "THERMODYNAMICS      [FORWARD_STEP]":
(PID.TID 0006.0001)           User time:   1.1692166328430176E-002
(PID.TID 0006.0001)         System time:  0.10774981230497360
(PID.TID 0006.0001)     Wall clock time:  0.49625754356384277
(PID.TID 0006.0001)          No. starts:          24
(PID.TID 0006.0001)           No. stops:          24
(PID.TID 0006.0001)   Seconds in section "DYNAMICS            [FORWARD_STEP]":
(PID.TID 0006.0001)           User time:  0.31016194820404053
(PID.TID 0006.0001)         System time:   1.3173647150397301
(PID.TID 0006.0001)     Wall clock time:   7.4563505649566650
(PID.TID 0006.0001)          No. starts:          24
(PID.TID 0006.0001)           No. stops:          24
(PID.TID 0006.0001)   Seconds in section "SOLVE_FOR_PRESSURE  [FORWARD_STEP]":
(PID.TID 0006.0001)           User time:   203.57216274738312
(PID.TID 0006.0001)         System time:   1.8715799301862717
(PID.TID 0006.0001)     Wall clock time:   318.55929398536682
(PID.TID 0006.0001)          No. starts:          24
(PID.TID 0006.0001)           No. stops:          24
(PID.TID 0006.0001)   Seconds in section "MOM_CORRECTION_STEP [FORWARD_STEP]":
(PID.TID 0006.0001)           User time:   3.5994529724121094E-002
(PID.TID 0006.0001)         System time:  0.17316015064716339
(PID.TID 0006.0001)     Wall clock time:  0.44838690757751465
(PID.TID 0006.0001)          No. starts:          24
(PID.TID 0006.0001)           No. stops:          24
(PID.TID 0006.0001)   Seconds in section "INTEGR_CONTINUITY   [FORWARD_STEP]":
(PID.TID 0006.0001)           User time:  0.33800745010375977
(PID.TID 0006.0001)         System time:  0.31393015384674072
(PID.TID 0006.0001)     Wall clock time:   1.7189579010009766
(PID.TID 0006.0001)          No. starts:          24
(PID.TID 0006.0001)           No. stops:          24
(PID.TID 0006.0001)   Seconds in section "TRC_CORRECTION_STEP [FORWARD_STEP]":
(PID.TID 0006.0001)           User time:   1.7070770263671875E-004
(PID.TID 0006.0001)         System time:   1.2993812561035156E-005
(PID.TID 0006.0001)     Wall clock time:   2.0551681518554688E-004
(PID.TID 0006.0001)          No. starts:          24
(PID.TID 0006.0001)           No. stops:          24
(PID.TID 0006.0001)   Seconds in section "BLOCKING_EXCHANGES  [FORWARD_STEP]":
(PID.TID 0006.0001)           User time:  0.43913936614990234
(PID.TID 0006.0001)         System time:   3.8468763232231140E-002
(PID.TID 0006.0001)     Wall clock time:  0.79459857940673828
(PID.TID 0006.0001)          No. starts:          24
(PID.TID 0006.0001)           No. stops:          24
(PID.TID 0006.0001)   Seconds in section "MONITOR             [FORWARD_STEP]":
(PID.TID 0006.0001)           User time:   2.4186117649078369
(PID.TID 0006.0001)         System time:  0.16048727929592133
(PID.TID 0006.0001)     Wall clock time:   4.0174484252929688
(PID.TID 0006.0001)          No. starts:          24
(PID.TID 0006.0001)           No. stops:          24
(PID.TID 0006.0001)   Seconds in section "DO_THE_MODEL_IO     [FORWARD_STEP]":
(PID.TID 0006.0001)           User time:   87.265248060226440
(PID.TID 0006.0001)         System time:  0.80669125914573669
(PID.TID 0006.0001)     Wall clock time:   144.94741940498352
(PID.TID 0006.0001)          No. starts:          24
(PID.TID 0006.0001)           No. stops:          24
(PID.TID 0006.0001)   Seconds in section "DO_WRITE_PICKUP     [FORWARD_STEP]":
(PID.TID 0006.0001)           User time:  0.11247587203979492
(PID.TID 0006.0001)         System time:   2.3235976696014404E-003
(PID.TID 0006.0001)     Wall clock time:  0.14296555519104004
(PID.TID 0006.0001)          No. starts:          24
(PID.TID 0006.0001)           No. stops:          24
(PID.TID 0006.0001) // ======================================================
(PID.TID 0006.0001) // Tile <-> Tile communication statistics
(PID.TID 0006.0001) // ======================================================
(PID.TID 0006.0001) // o Tile number: 000004
(PID.TID 0006.0001) //         No. X exchanges =              0
(PID.TID 0006.0001) //            Max. X spins =              0
(PID.TID 0006.0001) //            Min. X spins =     1000000000
(PID.TID 0006.0001) //          Total. X spins =              0
(PID.TID 0006.0001) //            Avg. X spins =       0.00E+00
(PID.TID 0006.0001) //         No. Y exchanges =              0
(PID.TID 0006.0001) //            Max. Y spins =              0
(PID.TID 0006.0001) //            Min. Y spins =     1000000000
(PID.TID 0006.0001) //          Total. Y spins =              0
(PID.TID 0006.0001) //            Avg. Y spins =       0.00E+00
(PID.TID 0006.0001) // o Thread number: 000001
(PID.TID 0006.0001) //            No. barriers =         105438
(PID.TID 0006.0001) //      Max. barrier spins =              1
(PID.TID 0006.0001) //      Min. barrier spins =              1
(PID.TID 0006.0001) //     Total barrier spins =         105438
(PID.TID 0006.0001) //      Avg. barrier spins =       1.00E+00
PROGRAM MAIN: Execution ended Normally
