(PID.TID 0003.0001) 
(PID.TID 0003.0001) // ======================================================
(PID.TID 0003.0001) //                      MITgcm UV
(PID.TID 0003.0001) //                      =========
(PID.TID 0003.0001) // ======================================================
(PID.TID 0003.0001) // execution environment starting up...
(PID.TID 0003.0001) 
(PID.TID 0003.0001) // MITgcmUV version:  checkpoint69m
(PID.TID 0003.0001) // Build user:        hodahashemi
(PID.TID 0003.0001) // Build host:        Hodas-MacBook-Pro.local
(PID.TID 0003.0001) // Build date:        Wed May 13 09:19:31 EEST 2026
(PID.TID 0003.0001) 
(PID.TID 0003.0001) // =======================================================
(PID.TID 0003.0001) // Execution Environment parameter file "eedata"
(PID.TID 0003.0001) // =======================================================
(PID.TID 0003.0001) ># Example "eedata" file
(PID.TID 0003.0001) ># Lines beginning "#" are comments
(PID.TID 0003.0001) ># nTx - No. threads per process in X
(PID.TID 0003.0001) ># nTy - No. threads per process in Y
(PID.TID 0003.0001) > &EEPARMS
(PID.TID 0003.0001) > /
(PID.TID 0003.0001) ># Note: Some systems use & as the
(PID.TID 0003.0001) ># namelist terminator. Other systems
(PID.TID 0003.0001) ># use a / character (as shown here).
(PID.TID 0003.0001) 
(PID.TID 0003.0001) // =======================================================
(PID.TID 0003.0001) // Computational Grid Specification ( see files "SIZE.h" )
(PID.TID 0003.0001) //                                  ( and "eedata"       )
(PID.TID 0003.0001) // =======================================================
(PID.TID 0003.0001)      nPx =    4 ; /* No. processes in X */
(PID.TID 0003.0001)      nPy =    2 ; /* No. processes in Y */
(PID.TID 0003.0001)      nSx =    1 ; /* No. tiles in X per process */
(PID.TID 0003.0001)      nSy =    1 ; /* No. tiles in Y per process */
(PID.TID 0003.0001)      sNx =  360 ; /* Tile size in X */
(PID.TID 0003.0001)      sNy =  360 ; /* Tile size in Y */
(PID.TID 0003.0001)      OLx =    2 ; /* Tile overlap distance in X */
(PID.TID 0003.0001)      OLy =    2 ; /* Tile overlap distance in Y */
(PID.TID 0003.0001)      nTx =    1 ; /* No. threads in X per process */
(PID.TID 0003.0001)      nTy =    1 ; /* No. threads in Y per process */
(PID.TID 0003.0001)       Nr =    1 ; /* No. levels in the vertical   */
(PID.TID 0003.0001)       Nx = 1440 ; /* Total domain size in X ( = nPx*nSx*sNx ) */
(PID.TID 0003.0001)       Ny =  720 ; /* Total domain size in Y ( = nPy*nSy*sNy ) */
(PID.TID 0003.0001)   nTiles =    1 ; /* Total no. tiles per process ( = nSx*nSy ) */
(PID.TID 0003.0001)   nProcs =    8 ; /* Total no. processes ( = nPx*nPy ) */
(PID.TID 0003.0001) nThreads =    1 ; /* Total no. threads per process ( = nTx*nTy ) */
(PID.TID 0003.0001) usingMPI =    T ; /* Flag used to control whether MPI is in use */
(PID.TID 0003.0001)                   /*  note: To execute a program with MPI calls */
(PID.TID 0003.0001)                   /*  it must be launched appropriately e.g     */
(PID.TID 0003.0001)                   /*  "mpirun -np 64 ......"                    */
(PID.TID 0003.0001) useCoupler=   F ; /* Flag used to control communications with   */
(PID.TID 0003.0001)                   /*  other model components, through a coupler */
(PID.TID 0003.0001) useNest2W_parent =    F ;/* Control 2-W Nesting comm */
(PID.TID 0003.0001) useNest2W_child  =    F ;/* Control 2-W Nesting comm */
(PID.TID 0003.0001) debugMode =    F ; /* print debug msg. (sequence of S/R calls)  */
(PID.TID 0003.0001) printMapIncludesZeros=    F ; /* print zeros in Std.Output maps */
(PID.TID 0003.0001) maxLengthPrt1D=   65 /* maxLength of 1D array printed to StdOut */
(PID.TID 0003.0001) 
(PID.TID 0003.0001) ======= Starting MPI parallel Run =========
(PID.TID 0003.0001)  My Processor Name (len: 23 ) = Hodas-MacBook-Pro.local
(PID.TID 0003.0001)  Located at (  1,  1) on processor grid (0:  3,0:  1)
(PID.TID 0003.0001)  Origin at  (   361,   361) on global grid (1:  1440,1:   720)
(PID.TID 0003.0001)  North neighbor = processor 0002
(PID.TID 0003.0001)  South neighbor = processor 0002
(PID.TID 0003.0001)   East neighbor = processor 0005
(PID.TID 0003.0001)   West neighbor = processor 0001
(PID.TID 0003.0001) // ======================================================
(PID.TID 0003.0001) // Mapping of tiles to threads
(PID.TID 0003.0001) // ======================================================
(PID.TID 0003.0001) // -o- Thread   1, tiles (   1:   1,   1:   1)
(PID.TID 0003.0001) 
(PID.TID 0003.0001) // ======================================================
(PID.TID 0003.0001) // Tile <-> Tile connectvity table
(PID.TID 0003.0001) // ======================================================
(PID.TID 0003.0001) // Tile number: 000006 (process no. = 000003)
(PID.TID 0003.0001) //        WEST: Tile = 000005, Process = 000001, Comm = messages
(PID.TID 0003.0001) //                bi = 000001, bj = 000001
(PID.TID 0003.0001) //        EAST: Tile = 000007, Process = 000005, Comm = messages
(PID.TID 0003.0001) //                bi = 000001, bj = 000001
(PID.TID 0003.0001) //       SOUTH: Tile = 000002, Process = 000002, Comm = messages
(PID.TID 0003.0001) //                bi = 000001, bj = 000001
(PID.TID 0003.0001) //       NORTH: Tile = 000002, Process = 000002, Comm = messages
(PID.TID 0003.0001) //                bi = 000001, bj = 000001
(PID.TID 0003.0001) 
(PID.TID 0003.0001)  INI_PARMS: opening model parameter file "data"
(PID.TID 0003.0001)  OPEN_COPY_DATA_FILE: opening file data
(PID.TID 0003.0001) // =======================================================
(PID.TID 0003.0001) // Parameter file "data"
(PID.TID 0003.0001) // =======================================================
(PID.TID 0003.0001) ># ===============================================================
(PID.TID 0003.0001) ># Vortex Sphere MITgcm Reference Case (MITgcm native solve)
(PID.TID 0003.0001) ># One-layer, global lat-lon, linearized barotropic dynamics.
(PID.TID 0003.0001) ># ===============================================================
(PID.TID 0003.0001) >
(PID.TID 0003.0001) ># Continuous equation parameters
(PID.TID 0003.0001) >&PARM01
(PID.TID 0003.0001) ># Planet / fluid
(PID.TID 0003.0001) > omega = 7.292E-5,
(PID.TID 0003.0001) > gravity = 9.81,
(PID.TID 0003.0001) > rhoConst = 1000.,
(PID.TID 0003.0001) > buoyancyRelation = 'OCEANIC',
(PID.TID 0003.0001) > eosType = 'LINEAR',
(PID.TID 0003.0001) >
(PID.TID 0003.0001) ># Dynamics switches
(PID.TID 0003.0001) > rigidLid = .FALSE.,
(PID.TID 0003.0001) > implicitFreeSurface = .TRUE.,
(PID.TID 0003.0001) > exactConserv = .TRUE.,
(PID.TID 0003.0001) > momStepping = .TRUE.,
(PID.TID 0003.0001) > momAdvection = .FALSE.,
(PID.TID 0003.0001) > useCoriolis = .TRUE.,
(PID.TID 0003.0001) > tempStepping = .FALSE.,
(PID.TID 0003.0001) > saltStepping = .FALSE.,
(PID.TID 0003.0001) >
(PID.TID 0003.0001) ># Viscosity / diffusion (set to zero to stay close to inviscid linear regime)
(PID.TID 0003.0001) > viscAh = 0.,
(PID.TID 0003.0001) > viscA4 = 0.,
(PID.TID 0003.0001) > diffKhT = 0.,
(PID.TID 0003.0001) > no_slip_sides = .FALSE.,
(PID.TID 0003.0001) > no_slip_bottom = .FALSE.,
(PID.TID 0003.0001) > hFacMin = 1.E-5,
(PID.TID 0003.0001) > hFacMinDr = 0.5,
(PID.TID 0003.0001) >
(PID.TID 0003.0001) ># I/O precision
(PID.TID 0003.0001) > readBinaryPrec = 32,
(PID.TID 0003.0001) > writeBinaryPrec = 64,
(PID.TID 0003.0001) > useSingleCpuIO = .TRUE.,
(PID.TID 0003.0001) >/
(PID.TID 0003.0001) >
(PID.TID 0003.0001) ># Elliptic solver parameters
(PID.TID 0003.0001) >&PARM02
(PID.TID 0003.0001) > cg2dMaxIters = 5000,
(PID.TID 0003.0001) > cg2dTargetResidual = 1.E-10,
(PID.TID 0003.0001) > cg2dPreCondFreq = 1,
(PID.TID 0003.0001) >/
(PID.TID 0003.0001) >
(PID.TID 0003.0001) ># Time stepping parameters
(PID.TID 0003.0001) >&PARM03
(PID.TID 0003.0001) > nIter0=0,
(PID.TID 0003.0001) > nTimeSteps=24 ,
(PID.TID 0003.0001) > abEps=0.1,
(PID.TID 0003.0001) > deltaT=900.,
(PID.TID 0003.0001) > cAdjFreq=0.,
(PID.TID 0003.0001) > pChkptFreq=0.,
(PID.TID 0003.0001) > chkptFreq=0.,
(PID.TID 0003.0001) > dumpFreq=10800.,
(PID.TID 0003.0001) > monitorSelect=1,
(PID.TID 0003.0001) > monitorFreq=1.,
(PID.TID 0003.0001) >/
(PID.TID 0003.0001) >
(PID.TID 0003.0001) ># Grid parameters
(PID.TID 0003.0001) >&PARM04
(PID.TID 0003.0001) > usingSphericalPolarGrid = .TRUE.,
(PID.TID 0003.0001) > delX = 1440*0.25,
(PID.TID 0003.0001) > delY = 720*0.25,
(PID.TID 0003.0001) > xgOrigin = 0.,
(PID.TID 0003.0001) > ygOrigin = -90.,
(PID.TID 0003.0001) > rSphere = 6371000.,
(PID.TID 0003.0001) > delR = 11000.,
(PID.TID 0003.0001) >/
(PID.TID 0003.0001) >
(PID.TID 0003.0001) ># Input datasets
(PID.TID 0003.0001) >&PARM05
(PID.TID 0003.0001) > bathyFile = 'bathymetry.bin',
(PID.TID 0003.0001) > pSurfInitFile = 'eta_init.bin',
(PID.TID 0003.0001) > uVelInitFile  = 'u_init.bin'
(PID.TID 0003.0001) > vVelInitFile  = 'v_init.bin'
(PID.TID 0003.0001) >/
(PID.TID 0003.0001) >
(PID.TID 0003.0001) 
(PID.TID 0003.0001)  INI_PARMS ; starts to read PARM01
(PID.TID 0003.0001)  INI_PARMS ; read PARM01 : OK
(PID.TID 0003.0001)  INI_PARMS ; starts to read PARM02
(PID.TID 0003.0001)  INI_PARMS ; read PARM02 : OK
(PID.TID 0003.0001)  INI_PARMS ; starts to read PARM03
(PID.TID 0003.0001)  INI_PARMS ; read PARM03 : OK
(PID.TID 0003.0001)  INI_PARMS ; starts to read PARM04
(PID.TID 0003.0001)  INI_PARMS ; read PARM04 : OK
(PID.TID 0003.0001)  INI_PARMS ; starts to read PARM05
(PID.TID 0003.0001)  INI_PARMS ; read PARM05 : OK
(PID.TID 0003.0001)  INI_PARMS: finished reading file "data"
(PID.TID 0003.0001)  PACKAGES_BOOT: opening data.pkg
(PID.TID 0003.0001)  OPEN_COPY_DATA_FILE: opening file data.pkg
(PID.TID 0003.0001) // =======================================================
(PID.TID 0003.0001) // Parameter file "data.pkg"
(PID.TID 0003.0001) // =======================================================
(PID.TID 0003.0001) ># Packages
(PID.TID 0003.0001) > &PACKAGES
(PID.TID 0003.0001) > useDiagnostics=.TRUE.,
(PID.TID 0003.0001) > /
(PID.TID 0003.0001) 
(PID.TID 0003.0001)  PACKAGES_BOOT: finished reading data.pkg
(PID.TID 0003.0001)  PACKAGES_BOOT: On/Off package Summary
 --------  pkgs with a standard "usePKG" On/Off switch in "data.pkg":  --------
 pkg/diagnostics          compiled   and   used ( useDiagnostics           = T )
 pkg/mypackage            compiled but not used ( useMYPACKAGE             = F )
 -------- pkgs without standard "usePKG" On/Off switch in "data.pkg":  --------
 pkg/generic_advdiff      compiled but not used ( useGAD                   = F )
 pkg/mom_common           compiled   and   used ( momStepping              = T )
 pkg/mom_vecinv           compiled but not used ( +vectorInvariantMomentum = F )
 pkg/mom_fluxform         compiled   and   used ( & not vectorInvariantMom = T )
 pkg/monitor              compiled   and   used ( monitorFreq > 0.         = T )
 pkg/debug                compiled but not used ( debugMode                = F )
 pkg/rw                   compiled   and   used
 pkg/mdsio                compiled   and   used
(PID.TID 0003.0001)  PACKAGES_BOOT: End of package Summary
(PID.TID 0003.0001) 
(PID.TID 0003.0001)  DIAGNOSTICS_READPARMS: opening data.diagnostics
(PID.TID 0003.0001)  OPEN_COPY_DATA_FILE: opening file data.diagnostics
(PID.TID 0003.0001) // =======================================================
(PID.TID 0003.0001) // Parameter file "data.diagnostics"
(PID.TID 0003.0001) // =======================================================
(PID.TID 0003.0001) ># Diagnostic Package Choices
(PID.TID 0003.0001) >#--------------------
(PID.TID 0003.0001) >#  dumpAtLast (logical): always write output at the end of simulation (default=F)
(PID.TID 0003.0001) >#  diag_mnc   (logical): write to NetCDF files (default=useMNC)
(PID.TID 0003.0001) >#--for each output-stream:
(PID.TID 0003.0001) >#  fileName(n) : prefix of the output file name (max 80c long) for outp.stream n
(PID.TID 0003.0001) >#  frequency(n):< 0 : write snap-shot output every |frequency| seconds
(PID.TID 0003.0001) >#               > 0 : write time-average output every frequency seconds
(PID.TID 0003.0001) >#  timePhase(n)     : write at time = timePhase + multiple of |frequency|
(PID.TID 0003.0001) >#    averagingFreq  : frequency (in s) for periodic averaging interval
(PID.TID 0003.0001) >#    averagingPhase : phase     (in s) for periodic averaging interval
(PID.TID 0003.0001) >#    repeatCycle    : number of averaging intervals in 1 cycle
(PID.TID 0003.0001) >#  levels(:,n) : list of levels to write to file (Notes: declared as REAL)
(PID.TID 0003.0001) >#                when this entry is missing, select all common levels of this list
(PID.TID 0003.0001) >#  fields(:,n) : list of selected diagnostics fields (8.c) in outp.stream n
(PID.TID 0003.0001) >#                (see "available_diagnostics.log" file for the full list of diags)
(PID.TID 0003.0001) >#  missing_value(n) : missing value for real-type fields in output file "n"
(PID.TID 0003.0001) >#  fileFlags(n)     : specific code (8c string) for output file "n"
(PID.TID 0003.0001) >#--------------------
(PID.TID 0003.0001) > &DIAGNOSTICS_LIST
(PID.TID 0003.0001) ># diag_mnc     = .FALSE.,
(PID.TID 0003.0001) ># useMissingValue=.TRUE.,
(PID.TID 0003.0001) >  xPsi0 = 135.,
(PID.TID 0003.0001) >  yPsi0 =  0.,
(PID.TID 0003.0001) >#--
(PID.TID 0003.0001) >  fields(1:5,3) = 'UVELMASS','VVELMASS',
(PID.TID 0003.0001) >                  'ETAN    ','ETANSQ  ','DETADT2 ',
(PID.TID 0003.0001) >   fileName(3) = 'dynDiag',
(PID.TID 0003.0001) >  frequency(3) = -21600.,
(PID.TID 0003.0001) >  timePhase(3) = -1800.,
(PID.TID 0003.0001) >
(PID.TID 0003.0001) >  fields(1:3,2) = 'WVELMASS','PhiVEL  ','PsiVEL  ',
(PID.TID 0003.0001) >   fileName(2) = 'dyn_Aux',
(PID.TID 0003.0001) ># fileFlags(2) = 'D       ',
(PID.TID 0003.0001) >  frequency(2) = -21600.,
(PID.TID 0003.0001) >  timePhase(2) = -1800.,
(PID.TID 0003.0001) > /
(PID.TID 0003.0001) >
(PID.TID 0003.0001) >#--------------------
(PID.TID 0003.0001) ># Parameter for Diagnostics of per level statistics:
(PID.TID 0003.0001) >#--------------------
(PID.TID 0003.0001) >#  diagSt_mnc (logical): write stat-diags to NetCDF files (default=diag_mnc)
(PID.TID 0003.0001) >#  diagSt_regMaskFile : file containing the region-mask to read-in
(PID.TID 0003.0001) >#  nSetRegMskFile   : number of region-mask sets within the region-mask file
(PID.TID 0003.0001) >#  set_regMask(i)   : region-mask set-index that identifies the region "i"
(PID.TID 0003.0001) >#  val_regMask(i)   : region "i" identifier value in the region mask
(PID.TID 0003.0001) >#--for each output-stream:
(PID.TID 0003.0001) >#  stat_fName(n) : prefix of the output file name (max 80c long) for outp.stream n
(PID.TID 0003.0001) >#  stat_freq(n):< 0 : write snap-shot output every |stat_freq| seconds
(PID.TID 0003.0001) >#               > 0 : write time-average output every stat_freq seconds
(PID.TID 0003.0001) >#  stat_phase(n)    : write at time = stat_phase + multiple of |stat_freq|
(PID.TID 0003.0001) >#  stat_region(:,n) : list of "regions" (default: 1 region only=global)
(PID.TID 0003.0001) >#  stat_fields(:,n) : list of selected diagnostics fields (8.c) in outp.stream n
(PID.TID 0003.0001) >#                (see "available_diagnostics.log" file for the full list of diags)
(PID.TID 0003.0001) >#--------------------
(PID.TID 0003.0001) > &DIAG_STATIS_PARMS
(PID.TID 0003.0001) ># diagSt_mnc    = .TRUE.,
(PID.TID 0003.0001) > stat_fields(1:5,1)  = 'ETAN    ','ETANSQ  ','DETADT2 ',
(PID.TID 0003.0001) >                       'UVEL    ','VVEL    ',
(PID.TID 0003.0001) >  stat_fName(1) = 'dynStDiag',
(PID.TID 0003.0001) >   stat_freq(1) = -7200.,
(PID.TID 0003.0001) >  stat_phase(1) = 0.,
(PID.TID 0003.0001) > /
(PID.TID 0003.0001) >
(PID.TID 0003.0001) 
(PID.TID 0003.0001) S/R DIAGNOSTICS_READPARMS, read namelist "diagnostics_list": start
(PID.TID 0003.0001) S/R DIAGNOSTICS_READPARMS, read namelist "diagnostics_list": OK
(PID.TID 0003.0001) S/R DIAGNOSTICS_READPARMS, read namelist "DIAG_STATIS_PARMS": start
(PID.TID 0003.0001) S/R DIAGNOSTICS_READPARMS, read namelist "DIAG_STATIS_PARMS": OK
(PID.TID 0003.0001) -----------------------------------------------------
(PID.TID 0003.0001)  DIAGNOSTICS_READPARMS: global parameter summary:
(PID.TID 0003.0001)  diag_dBugLevel = /* level of printed debug messages */
(PID.TID 0003.0001)                       2
(PID.TID 0003.0001)     ;
(PID.TID 0003.0001)  dumpAtLast = /* always write time-ave diags at the end */
(PID.TID 0003.0001)                   F
(PID.TID 0003.0001)     ;
(PID.TID 0003.0001)  diag_mnc =   /* write NetCDF output files */
(PID.TID 0003.0001)                   F
(PID.TID 0003.0001)     ;
(PID.TID 0003.0001)  useMissingValue = /* put MissingValue where mask = 0 */
(PID.TID 0003.0001)                   F
(PID.TID 0003.0001)     ;
(PID.TID 0003.0001)  diagCG_maxIters = /* max number of iters in diag_cg2d */
(PID.TID 0003.0001)                    5000
(PID.TID 0003.0001)     ;
(PID.TID 0003.0001)  diagCG_resTarget = /* residual target for diag_cg2d */
(PID.TID 0003.0001)                 1.000000000000000E-10
(PID.TID 0003.0001)     ;
(PID.TID 0003.0001)  diagCG_pcOffDFac = /* preconditioner off-diagonal factor */
(PID.TID 0003.0001)                 9.611687812379854E-01
(PID.TID 0003.0001)     ;
(PID.TID 0003.0001) -----------------------------------------------------
(PID.TID 0003.0001)  DIAGNOSTICS_READPARMS: active diagnostics summary:
(PID.TID 0003.0001) -----------------------------------------------------
(PID.TID 0003.0001) Creating Output Stream: dyn_Aux
(PID.TID 0003.0001) Output Frequency:     -21600.000000 ; Phase:       -1800.000000
(PID.TID 0003.0001)  Averaging Freq.:          0.000000 , Phase:           0.000000 , Cycle:   1
(PID.TID 0003.0001)  missing value: -9.990000000000E+02
(PID.TID 0003.0001)  Levels:    will be set later
(PID.TID 0003.0001)  Fields:    WVELMASS PhiVEL   PsiVEL
(PID.TID 0003.0001) Creating Output Stream: dynDiag
(PID.TID 0003.0001) Output Frequency:     -21600.000000 ; Phase:       -1800.000000
(PID.TID 0003.0001)  Averaging Freq.:          0.000000 , Phase:           0.000000 , Cycle:   1
(PID.TID 0003.0001)  missing value: -9.990000000000E+02
(PID.TID 0003.0001)  Levels:    will be set later
(PID.TID 0003.0001)  Fields:    UVELMASS VVELMASS ETAN     ETANSQ   DETADT2
(PID.TID 0003.0001) -----------------------------------------------------
(PID.TID 0003.0001)  DIAGNOSTICS_READPARMS: statistics diags. summary:
(PID.TID 0003.0001) Creating Stats. Output Stream: dynStDiag
(PID.TID 0003.0001) Output Frequency:      -7200.000000 ; Phase:           0.000000
(PID.TID 0003.0001)  Regions:   0
(PID.TID 0003.0001)  Fields:    ETAN     ETANSQ   DETADT2  UVEL     VVEL
(PID.TID 0003.0001) -----------------------------------------------------
(PID.TID 0003.0001) 
(PID.TID 0003.0001) SET_PARMS: done
(PID.TID 0003.0001) Enter INI_VERTICAL_GRID: setInterFDr=    T ; setCenterDr=    F
(PID.TID 0003.0001) // =======================================================
(PID.TID 0003.0001) // Field Model R_low (ini_masks_etc)
(PID.TID 0003.0001) // CMIN =         -1.074100000000000E+04
(PID.TID 0003.0001) // CMAX =         -9.999999999999999E-01
(PID.TID 0003.0001) // CINT =          3.977777777777777E+02
(PID.TID 0003.0001) // SYMBOLS (CMIN->CMAX): -abcdefghijklmnopqrstuvwxyz+
(PID.TID 0003.0001) //                  0.0: .
(PID.TID 0003.0001) // RANGE I (Lo:Hi:Step):(   359:   722:     1)
(PID.TID 0003.0001) // RANGE J (Lo:Hi:Step):(   722:   359:    -1)
(PID.TID 0003.0001) // RANGE K (Lo:Hi:Step):(   1:   1:   1)
(PID.TID 0003.0001) // =======================================================
(PID.TID 0003.0001) K =   1
(PID.TID 0003.0001) //                I=368     I=378     I=388     I=398     I=408     I=418     I=428     I=438     I=448     I=458     I=468     I=478     I=488     I=498     I=508     I=518     I=528     I=538     I=548     I=558     I=568     I=578     I=588     I=598     I=608     I=618     I=628     I=638     I=648     I=658     I=668     I=678     I=688     I=698     I=708     I=718
(PID.TID 0003.0001) // |--J--|901234567|901234567|901234567|901234567|901234567|901234567|901234567|901234567|901234567|901234567|901234567|901234567|901234567|901234567|901234567|901234567|901234567|901234567|901234567|901234567|901234567|901234567|901234567|901234567|901234567|901234567|901234567|901234567|901234567|901234567|901234567|901234567|901234567|901234567|901234567|901234567|9012
(PID.TID 0003.0001) //    722 ............................................................................................................................................................................................................................................................................................................................................................................
(PID.TID 0003.0001) //    721 ............................................................................................................................................................................................................................................................................................................................................................................
(PID.TID 0003.0001) //    720 pppppppppppppppppppppppppppppppppppppppppppppppppppppppppppppppppppppppppppppppppppppppppppppppppppppppppppppppppppppppppppppppppppppppppppppppppppppppppppppppppppppppppppppppppppppppppppppppppppppppppppppppppppppppppppppppppppppppppppppppppppppppppppppppppppppppppppppppppppppppppppppppppppppppppppppppppppppppppppppppppppppppppppppppppppppppppppppppppppppppppppp
(PID.TID 0003.0001) //    719 pppppppppppppppppppppppppppppppppppppppppppppppppppppppppppppppppppppppppppppppppppppppppppppppppppppppppppppppppppppppppppppppppppppppppppppppppppqqppppppqqqqqqqqqqqqqqqqqqqqqqqqqqqqqqqqqqqqqqqqqqqqqqqqqqqqqqqqqqqqqqqqqqqqqqqqqqqqqqqqqqqqqqqqqqqqqqqqqqqqqqqqqqqqqqqqqqqqqqqqqqqqqqqqqqqqqqqqqqqqqqqqqqqqqqqqqqqqqqqqqqqqqqqqqqqqqqqqqqqqqqqqqqqqqqqqqqqqqqqqqqqqqqqqq
(PID.TID 0003.0001) //    718 pppppppppppppppppppppppppppppppppppppppppppppppppppppppppppppppppppppppppppppppppqqqqqqqqqqqqqqqqqqqqqqqqqqqqqqqqqqqqqqqqqqqqqqqqqqqqqqqqqqqqqqqqqqqqqqqqqqqqqqqqqqqqqqqqqqqqqqqqqqqqqqqqqqqqqqqqqqqqqqqqqqqrrrrrrrrrrrrrrrrrrrrrrrrrrrrrrrrrrrrrrrrrrrrrrrrrrrrrrrrrrrrrrrrrrrrrrrrrrrrrrrrrrrrrrrrrrrrrrrrrrrrrrrrrrrrrrrrrrrrrrrrrrrrrrrrrrrrrrrrrrrrrrrrrrrrrrrrrrrrrrrr
(PID.TID 0003.0001) //    717 pppppppppppppppppppppppppppppppppppppppppppppppppppppppppppppppppppppppppppppqqqqqqqqqqqqqqqqqqqqqqqqqqqqqqqqqqqqqqqqqqqqqqqqqqqqqqqqqqqqqqqqqqqqqqqqqqqqqqqqqqqqqqqqqqqrrrrrrrrrrrrrrrrrrrrrsssssssssssssssssssssssstttttttttsstttttttttttttttttttttttttttttttttttttttttttttttttttttttttttttttttttttttttttttttttttttttttttttttttttttttttttttttttttttttttttttttttttttttttttt
(PID.TID 0003.0001) //    716 ppppppppppppppppppppppppppppppppppppppppppppppppppppppppppppppppppppppppppppppppppqqqqqqqqqqqqqqqqqqqqqqqqqqqqqqqqqqqqqqqqqqqqqqqqqqqqqqqqqqqqqqqqqqqqqqqqqqqrrrrrrrrrrrrrssssssssssttttttttttttuuuuuuuuuuuuuuuuuuuuuuuuuuuuuuuuuuuuuuuuuuuuuuuuuuuuuuuuuuuuuuutttttuuuutttttttttttttttttuuutttttttttttttttttttttttttttttttttttttttttttttttttttttttttttttttttttttttttttttttt
(PID.TID 0003.0001) //    715 ppppppppppppppppppppppppppppppppppppppppppppppppppppppppppppppppppppppppppppppppppppppppppppqqqqqqqqqqqqqqqqqqqqqqqqqqqqqqqqqqqqqqqqqqqqqqqqqqqqqqqqqqqqqqqrrrrrrrrrrssssssstttttttuuuuuuuvvvvvvvvvvwwwwwwwwwwwwwwwwwwwwvvvvvvvvvvvvvvvvvvuuuuuuuuuuuuuuuuuuttttuuuttttttttttttttttttttttttttttttttttttttttttttttttttttttttttttttttttsssssssssssssssssssssssssssssssssssssss
(PID.TID 0003.0001) //    714 pppppppppppppppppppppppppppppppppppppppppppppppppppppppppppppppppppppppppppppppppppppppppppppppppppppppppppppqqqqqqqqqqqqqqqqqqqqqqqqqqqqqqqqqqqqqqqqqqqqqqrrrrrrrrrsssssstttttuuuuuuvvvvvvwwwwwwwwwwwwwwxxxxxxxxxwwwwwwwwwwwwwwvvvvvvvvvvvuuuuuuuuuuuuuutttttttttttttttttttttttsssssssssssssssssssssssssssssssssssssssssssssssrrrrrrrrrrrrrrrrrrrrrrrrrrrrrrrrrrrrrrrrrqqqq
(PID.TID 0003.0001) //    713 ppppppppppppppppppppppppppppppppppppppppppppppppppppppppppppppppppppppppppppppppppppppppppppppppppppppppppppppppqqqqqqqqqqqqqqqqqqqqqqqqqqqqqqqqqqqqqqqqqqqqqrrrrrrrrssssstttttuuuuvvvvvvwwwwwwwwwxxxxxxxxxxxxxxxxxxxxxwwwwwwwwvvvvvvvuuuuuuuuuutttttttttttttsssssssssssssssssssssssssrrrrrrrrrrrrrrrrrrrrrrrrrrrrrrrrrrrrrrrrrrrrrrrrrrrqqqqqqqqqqqqqqqqqqqqqqqqqqqqqqqqqqq
(PID.TID 0003.0001) //    712 ppppppppppppppppppppppppppppppppppppppppppppppppppppppppppppppppppppppppppppppppppppppppppppppppppppppppppppppppqqqqqqqqqqqqqqqqqqqqqqqqqqqqqqqqqqqqqqqqqqqqqqqrrrrrrrrsssstttttuuuuvvvvvwwwwwwwxxxxxxxxxxxxxxxxxxxxxxxwwwwwwvvvvvuuuuuuuttttttttssssssssssssssssssssrrrrrrrrrrrrrrrrrrrrrrrrrrrrrrqqqqqqqqqqqqqqqqqqqqqqqqqqqqqqqqqqqqqqqqqqqqqqqqqqqqqqqrrrrrrrrrrrrrrrrrr
(PID.TID 0003.0001) //    711 ppppppppppppppppppppppppppppppppppppppppppppppppppppppppppppppppppppppppppppppppppppppppppppppppppppppppppppppqqqqqqqqqqqqqqqqqqqqqqqqqqqqqqqqqqqqqqqqqqqqqqqqqqqqqrrrrrrrsssstttuuuuvvvvwwwwwwxxxxxxxxxxxxxxxxxxxxxxxwwwwwwvvvvvuuuuutttttttsssssssssssrrrrrrrrrrrrrrrrrrrrrrrrrqqqqqqqqqqqqqqqqqqqqqqqqqqqqqqqqqqqqqqqqqqqqqqqqqqqqqqqqqqqqqqqqqqqqqqqqqrrrrrrrrrrrrrrrrrr
(PID.TID 0003.0001) //    710 pppppppppppppppppppppppppppppppppppppppppppppppppppppppppppppppppppppppppppppppppppppppppppppppppppppppppppqqqqqqqqqqqqqqqqqqqqqqqqqqqqqqqqqqqqqqqqqqqqqqqqqqqqqqqqqqqqqrrrrrssstttuuuuvvvwwwwwxxxxxxxxxxxxxxxxxxxwwwwwwwvvvvvuuuuutttttttsssssssssssrrrrrrrrrrrrrrrrrrrrqqqqqqqqqqqqqqqqqqqqqqqqqqqqqqqqqqqqqqqqqqqqqqqqqqqqqqqqqqqqqqqqqqqqqqqqqqqqqqqqqqqqqqqqqqqqqqqqqqq
(PID.TID 0003.0001) //    709 ppppppppppppppppppppppppppppppppppppppppppppppppppppppppppppppppppppppppppppppppppppppppppppppppppppppppqqqqqqqqqqqqqqqqqqqqqqqqqqqqqqqqqqqqqqqqqqqqqqqqqqqqqqqqqqqqqqqqqqrrrrssssttttuuuvvvwwwwwxxxxxxxxxxxxwwwwwwwwvvvvvuuuuutttttttssssssssssssssrrrrrrrrrrrrrrrqqqqqqqqqqqqqqqqqqqqqqqqqqqqqqqqqqqqqqqqqqqqqqqqqqqqqqqqqqqqqqqqqqqqqqqqqqqqqqqqqqqqqqqqqqqqqqqqqqqqqqqqq
(PID.TID 0003.0001) //    708 qqqqqqqppppppppppppppppppppppppppppppppppppppppppppppppppppppppppppppppppppppppppppppppppppppppppppppppqqqqqqqqqqqqqqqqqqqqqqqqqqqqqqqqqqqqqqqqqqqqqqqqqqqqqqqqqqqqqqqqqqqqqrrrrrsssstttuuuvvvwwwwwwxxxxxxxwwwwwwwvvvvvuuuutttttttssssssssssssssssssrrrrrrrrrrrrrrqqqqqqqqqqqqqqqqqqqqqqqqqqqqqqqqqqqqqqqqqqqqqqqqqqqqqqqqqqqqqqqqqqqqqqqqqqqqqqqqqqqqqqqqqqqqqqqqqqqqqqqqqq
(PID.TID 0003.0001) //    707 qqqqqqqqqqqqqqqqqqqqqqqqqqqqqqqqqqqppppppppppppppppppppppppppppppppppppppppppppppppppppppppppppppppppppqqqqqqqqqqqqqqqqqqqqqqqqqqqqqqqqqqqqqqqqqqqqqqqqqqqqqqqqqqqqqqqqqqqqqqqqqrrrrrsstttuuvvvwwwwxxxxxxxxxxxwwwwvvvvuuuuttttttsssssssssssssssssssssrrrrrrrrrrrrrrqqqqqqqqqqqqqqqqqqqqqqqqqqqqqqqqqqqqqqqqqqqqqqqqqqqqqqqqqqqqqqqqqqqqqqqqqqqqqqqqqqqqqqqqqqqqqqqqqqqqqqqqq
(PID.TID 0003.0001) //    706 rrrrrrrrrrrrrrqqqqqqqqqqrrrrrrrrrqqqqqqqqqqqqqqqqqqqqqqppppppppppppppppppppppppppppppppppppppppppppppppqqqqqqqqqqqqqqqqqqqqqqqqqqqqqqqqqqqqqqqqqqqqqqqqqqqqqqqqqqqqqqqqqqqqqqqqqqqqrrrrssttuuuvvwwwwxxxxxxxxxxxwwwwvvvvuuuutttttssssssssssssssssssssssssrrrrrrrrrrrrqqqqqqqqqqqqqqqqqqqqqqqqqqqqqqqqqqqqqqqqqqqqqqqqrrrrrrrrrrrrrrrrrrrrrqqqqqqqqqqqqqqqqqqqrrrrrrrrrrrrrrrr
(PID.TID 0003.0001) //    705 rrrrrrrrrrrrrrrrrrrrrrrrrssssssssssssssrrrrrrrrrqqqqqqqqqqqqqqqqqqqqqqqpppppppppppppppppppppppppppppppppqqqqqqqqqqqqqqqqqqqqqqqqqqqqqqqqqqqqqqqqqqqqqqqqqqqqqqqqqqqqqqqqqqqqqqqqqqqqqrrrrsstttuuvvvwwwwwxxxxxxwwwwvvvvvuuuutttttssssssssssssssssssssssssssrrrrrrrrrrrrqqqqqqqqqqqqqqqqqqqqqqqqqqqqqqqqqqqqqqqrrrrrrrrrrrrrrrrrrsssssssssssssssssssssssssssssssssssssssssssss
(PID.TID 0003.0001) //    704 ssssssrrrrrrrrrrrrrrrrssssssstttttttttssssssssrrrrrqqqqqqqqqqqqqqqqqqqqqqqqqqqqqqqqqqqqpppppppppppppppppppqqqqqqqqqqqqqqqqqqqqqqqqqqqqqqqqqqqqqqqqqqqqqqqqqqqqqqqqqqqqqqqqqqqqqqqqqqqqqqrrrrsstttuuvvvvwwwwwwwwvvvvvvvuuuuutttttssssssssssssssssssssssssssssrrrrrrrrrrrrrrrqqqqqqqqqqqqqqqqqqqqqqqqqqqqqqrrrrrrrrrrrsssssssssssstttttttttttttttttttttttttttttttttttttttttttt
(PID.TID 0003.0001) //    703 ssssrrrrrrrrrrrrrrrrsssssssstttttttttttttsssssssrrrrrqqqqqqqqqqqqqqqqqqqqqqqqqqqqqqqqqqqqqqqqqqqqqqqqqqqqqqqqqqqqqqqqqqqqqqqqqqqqqqqqqqqqqqqqqqqqqqqqqqqqqqqqqqqqqqqqqqqqqqqqqqqqqqqqqqqqqqrrrsssttuuvvvvwwwwwwvvvvvvvuuuuuuttttttsssssssssssssssssssssssssssssrrrrrrrrrrrrrrrrrrrrrrrrrrrrrrrrrrrrrrrrrrrrrrrrrrrsssssssssstttttttttttttttttttttttttttttttttuuuuuuuuuuuuuuu
(PID.TID 0003.0001) //    702 rrrrrrrrqrrrrrrrrrrsssssssssssttttttttsssssssssssrrrrrrrrrrrrrrrrrrrrrrqqqqqqqqqqqqqqqqqqqqqqqqqqqqqqqqqqqqqqqqqqqqqqqqqqqqqqqqqqqqqqqqqqqqqqqqqqqqqqqqqqqqqqqqqqqqqqqqqqqqqqqqqqqqqqqqqqqqqqrrsssttuuuvvvvvwwwwwwwwwvvvvuuuuuutttttttsssssssssssssssssssssssssssssssssssrrrrrrrrrrrrrrrrrrrrrrrrrrrrrrrrrrrrrrrrrssssssssssstttttttttttttuuuuuuuuuuuuuuuuuuuuuuuuuuuuuuuvvv
(PID.TID 0003.0001) //    701 ssssssssssrrrrrrrrrrrrrrrrrrrrsssssssssssssssssssssssssssssssssssssssrrrrrrrrrrrrrrrrrrrrrrqqqqqqqqqqqqqqqqqqqqqqqqqqqqqqqqqqqqqqqqqqqqqqqqqqqqqqqqqqqqqqqqqqqqqqqqqqqqqqqqqqqqqqqqqqqqqqqqqqqrrrssttttuuuuuuvvvvvvvvvvvvvvvvvvuuuuuuuttttttttttttttttssssssssssssssssssssssssssssssssrrrrrrrrrrrrrrrrrrrrrrrrrrrrrssssssssssssssssttttttttttuuuuuuuuuuuuuuuuuuuuuvvvvvvvvvv
(PID.TID 0003.0001) //    700 sssssssssssssssssssssrrrrrrrrrrrrrrrrrssrrrrrrrrrrsssssssssssssssssssssssssssssssssrrrrrrrrrrrrrrrrrrrrrrqqqqqqqqqqqqqqqqqqqqqqqqqqqqqqqqqqqqqqqqqqqqqqqqqqqqqqqqqqqqqqqqqqqqqqqqqqqqqqqqqqqqqrrrsssstttttttuuuuuuuvvvvvvvvvvvvvvvvvvvvvuuuuuuuuutttttttttttttttttttttttttttttttttssssssssssssssrrrrrrrrrrrrrrrrrrrsssssssssssssssssssssttttttttttuuuuuuuuuuuuuuuuvvvvvvvvvv
(PID.TID 0003.0001) //    699 rrrrrrrrrrrrrssssssssssssssssssssssrrrrrrrrrrrrrrrrrrrrrrrrrrrrrrrssssssssssttsssssssrrrrrssssssssssssssssssssrrrrrrqqqqqqqqqqqqqqqqqqqqqqqqqqqqqqqqqqqqqqqqqqqqqqqqqqqqqqqqqqqqqqqqqqqqqqqqqqrrrrsssstttttttttuuuuuuvvvvvvvwwwwwwwwwwwvvvvvvvvuuuuuuuuuuuuuuuuuuuuuuuuuuuuuuttttttttttssssssssssssssssssssrrrrrrrrssssssssssssssssssssssssttttttttttttuuuuuuuuuuuuuuuuuuuuu
(PID.TID 0003.0001) //    698 rrrrrrrrrrrrrrrrrrrrrrrrrrrsssssssrrrrrrrrrrrrrrrrrrrrrrrrrrrrrrrrrrrrrrrrrrsssssssssrrrrrsssstttttttttttttttttsssssrrrrqqqqqqqqqqqqqqqqqqqqqqqqqqqqqqqqqqqqqqqqqqqqqqqqqqqqqqqqqqqqqqqqqqqqqqrrrrssssstttttuuuuuuuvvvvvvvvwwwwwwwwwwwwwwvvvvvvvvvvvvvvvvvvvvvvvvvvuuuuuuuuuuutttttttttttttttsssssssssssssssssssssssssssssssssssssssssssssssstttttttttttttttttuuuuuuuuuuuuuu
(PID.TID 0003.0001) //    697 rrrrrrrrrrrrrrrrrrrrrrrrrrrrrrrrrrrrrrrrrrrrrrrrrssssssssssssssssssssssssrrrrrrrrrrrrrrrrrssssttttttttuuuuttttttttttsssssrrrqqqqqqqqqqqqqqqqqqqqqqqqqqqqqqqqqqqqqqqqqqqqqqqqqqqqqqqqqqqqqqqqqrrrrrssssttttuuuvvvvvwwwwvvwwwwwwwwwwwwwwwwvvvvvvvvvvvvvvvvvvvvvvvvvvvvvuuuuuuuuuutttttttttttttttttttssssssssssssssssssssssssssssssssssssssssssssttttttttttttttttttttuuuuuuuuuu
(PID.TID 0003.0001) //    696 rrrrrrrrrrrrrrrrrrrrrrrrrrrrrrrrrrrrrrrrrrrrrrrrrrrrssssssssssssssssssssssssrrsssrrrrrrrrrrrrssssstttttuuuutttttttttttttsssrrrqqqqqqqqqqqqqqqqqqqqqqqqqqqqqqqqqqqqqqqqqqqqqqqqqqqqqqqqqqqqqqqrrrrsssssttuuuvvwwwwwwwwwwwwwwwwwwwwwwwwvvvvvvvvvvvvvvvvvvvvvvvvvvvvvvvvuuuuuuuuuutttttttttttttttttttttssssssssssssssssssssssssssssssssssssssssstttttttttttttttttttttttuuuuuuuu
(PID.TID 0003.0001) //    695 rrrrrrrrrrrrrrrrrrrrrrrrrrrrrrrrrrrrrrrrrrrrrrrrrrrrrrrrrrssssssssssssssssrrrrssssssssrrrrrrrrrrrssstttttttttttttttttttttssrrrrqqqqqqqqqqqqqqqqqqqqqqqqqqqqqqqqqqqqqqqqqqqqqqqqqqqqqqqqqqqqqrrrrrssssstttuuvvvwwwwwwwwwwwwwwwwwwwwwwvvvvvvvvvvvvvvvvvvvvvvvvvvvvvvvvvuuuuuuuuuuuutttttttttttttttttttttsssssssssssssssssssssssssssssssssssstttttttttttttttttttttttttuuuuuuuuu
(PID.TID 0003.0001) //    694 rrrrrrrrrrrrrrrrrrrrrrrrrrrrrrrrrrrrrrrrrrrrrrrrrrrrrrrrrrrsssssssssssssrrrrrrrsssssssssssssssrrrrrrrssstttttttttttttttttsssrrrqqqqqqqqqqqqqqqqqqqqqqqqqqqqqqqqqqqqqqqqqqqqqqqqqqqqqqqqqqqqrrrrrsssssttttuuuvvvwwwwwwwwxxxxxxwwwwwwvvvvvvvuuuuuuuuuuuuuuuuuuuuuuuuuuuuuuuuuuuuuuuuuttttttttttttttttttttssssssssssssssssssssssssstttttttttttttttttttttttttttttttttuuuuuuuuuuu
(PID.TID 0003.0001) //    693 rrrrrrrrrrrrrrrrrrrrrrrrrrrrrrrrrrrrrrrrrrrrrrrrrrrrrrrrrrrrrssssssssrrrrrrrrrrrrrsssssssssssssrrrrrrrrrrrsssstttttttttttsssrrrrqqqqqqqqqqqqqqqqqqqqqqqqqqqqqqqqqqqqqqqqqqqqqqqqqqqqqqqqqqqrrrrrsssstttttuuuvvvwwwwwwwxxxxxxxxwwwwvvvvvuuuuuuuuuuuuuuuuuuuuuuuuuuuuuuuuuuuuuuuuuuuuuuttttttttttttttttttttttttttttttttttttttttttttttttttttttttttttttttttttttttttuuuuuuuuuuuuu
(PID.TID 0003.0001) //    692 sssssssssssssssssssssssssssssssssssrrrrrrrrrrrrrrrrrrrrrrrrrrrrrrrrrrrrrrrrrrrrrrrrrrrrrrrrsssssssrrrrrrqqrrrssssttttttttsssrrrrqqqqqqqqqqqqqqqqqqqqqqqqqqqqqqqqqqqqqqqqqqqqqqqqqqqqqqqqqqrrrrrssssttttuuuuvvvwwwwxxxxxxxxxxxxwwwvvvvuuuuuuuuuuuuuuuttttttttttttttttttttuuuuuuuuuuutttttttttttttttttttttttttttttttttttttttttttttttttttttttttttttttttttttttttuuuuuuuuuuuuuuuu
(PID.TID 0003.0001) //    691 ttuuuuuuuuutttttttttttttssssssssssssssssrrrrrrrrrrrrrrrrrrrrrrrrrrrrrrrrrrrrrrrrrrrrrrrrrrrrrrrsssssssssrrrqqrrrsssttttttsssrrrrqqqqqqqqqqqqqqqqqqqqqqqqqqqqqqqqqqqqqqqqqqqqqqqqqqqqqqqqrrrrrsssssttttuuuuvvvwwwwxxxxxyyxxxxwwwwvvvvuuuuuuutttttuuutttttttttttttttttttttttttttttttttttttttttttttttttttttttttttttttttttttttttttttttttttttttttttttttttttttttuuuuuuuuuuuuuuuuuu
(PID.TID 0003.0001) //    690 vvvvvwwwwwwwwwvvvvvvvvuuuuttttttsssssssssssssssssssssssssssssssssssssssssssssssssssrrrrrrrrrrrrrrsssssttssrrrqqqrrrssstttsssrrrrrrrrqqqqqqqqqqqqqqqqqqqqqqqqqqqqqqqqqqqqqqqqqqqqqqqqqrrrrrrrrsssssttttuuuuvvvwwwwwxxxxxxxwwwwvvvvvvuuuuuuuttttttuuuuttttttttttttttttttttttttttttttttttttttttttttttttttttttttttttttttttttttttttttttttttttttttttttttttttttuuuuuuuuuuuuuuuuuuuv
(PID.TID 0003.0001) //    689 xxxxxxxxyyyyyyyxxxxxwwwvvvvuuuuuttttttsssssssssssssstttsssssssssssssssssssssssssssssssssssrrrrrrrrrrssssssssrrrqqqqrrrssssssssrrrrrrrrrrrrrqqqqqqqqqqqqqqqqqqqqqqqqqqqqqqqqqqqqqqqqrrrrrrrrrsssssttttuuuuuvvwwwwwwwxxwwwwwvvvvvvvvuuuuuuuutttttuuuuuuttttttttttttttttttttttttttttttttttttttttttttttttttttttttttttttttttttttttttttttttttttttttttttttttuuuuuuuuuuuuuuuuuuvvvvv
(PID.TID 0003.0001) //    688 yzzzzzzzzzzzzzzzzzzzyyyxxxwwwvvvvuuuutttttttttttttttttttttttttssssssssssssssssssssssssssssssssrrrrrrrrrssssrrrrrrqqqqrrssstssssssrrsssssssrrrqqqqqqqqqqqqqqqqqqqqqqqqqqqqqqqqqqqrrrrrrrrrrrssssssttttuuuuvvwwwwwwwwwwwvvvvvvvvvvuuuuuuuuuttttuuuuuuuttttttttttttttttttttttttttttttttttttttttttttttttttttttttttttttttttttttttttttttttttttttttttttttttuuuuuuuuuuuuuuuuvvvvvvvv
(PID.TID 0003.0001) //    687 zzzz++++++++++++++++++zzzyyyxxwwwvvvvuuuuuuuuuuuuuuuuuuuuuttttttsssssssssrrrssssssssssssssssssssrrrrrrrrrrrrrrrrrrrqqqrrssttssssssrrrsssssrrrqqqqqqqqqqqqqqqqqqqqqqqqqqqqqrrrrrrrrrrrrrrrssssssssttttuuuuvvwwwwwwwwwwwvvvvvvvvvuuuuuuuuuutttuuuuuuuutttttttttttttttttttttttttttttttttttttttttttttttttttttttttttttttttttttttttttttttttttttttttttttttuuuuuuuuuuuuuuvvvvvvvvvvv
(PID.TID 0003.0001) //    686 +++++++++++++++++++++++++zzzzyyxxwwwwwwwwvvvvvvvvvvuuuuuuuuutttttsssssssssssssssssssssssssssssssssrrrrrrrrrrrrrrrrrrrqrrrsssssssssrrrrrrrrrrqqqqqqqqqqqqqqqqqqrrrrrrrrrrrrrrrrrrrrrrrsssssssssssstttttuuuvvwwwwwwwwwwwwvvvvvvvvuuuuuuuuuuuuuuuuuuuuuuuuttttttttttttttttttttttttttttttttttttttttttttttttttttttttttttttttttttttttttttttttttttttttttttuuuuuuuuuuuuvvvvvvvvvvvvv
(PID.TID 0003.0001) //    685 +++....++++++++++++.........+zzyyyxxxxxxxxxxwwwwwwvvvvvvvvuuuuuttttssssssssssssssssssssssssssssssssssrrrrrrrrrrrrrrrrrrrrrsssssssrrrrrrrrrrrqqqqqqqqqqqqqqqrrrrrrrssssssssssrrrrsssssssssssssssstttttttuuuvvwwwwwwwwwwwwwvvvvvvvuuuuuuuuuuuuuuuuuuuuuuuuuuuuuuuuuuutttttttttttttttttttttttttttttttttttttttttttttttttttttttttttttttttttttttttttttttuuuuuuuuuuuvvvvvvvvvvvvvvv
(PID.TID 0003.0001) //    684 +++++++++++++...................zzzzzzzzzzyyyxxxxxwwwwwvvvvvvuuuuutttssssssssssssssssssssssssssssssssssssrrrrrrrrrrrrrrrrrrrssssrrrrrrrrrrrrqqqqqqqqqqqqqqrrrrrrrsssstttsssssrrrssssssssssssssttttttttttuuuuvvwwwwwwwwwwwwvvvvvvvvvvvvvvvvvvuuuuuuuuuuuuuuuuuuuuuuuuuuuuuuuuuuuuutttttttttttttttttttttttttttttttttttttttttttttttttttttttttttttttuuuuuuuuuuvvvvvvvvvvvvvwwvvv
(PID.TID 0003.0001) //    683 +++++++++++++.................+++++++++zzzzzzzyyyyyyxxwwwvvvvvvuuuuttttttttttttttttsssssssssssssssssssssssssssrrrrrrrrrrrrrrrrrrrrrrrrrrrrrrqqqqqqqqqqqqqqrrrrrrrssssttttssssrrrrsssssssssssstttttttttuuuuuuvvvvwwwwwwwwwwwwvvvvvvvvvvvvvvvvvvvvvvvvvvvvvvvvvuuuuvuuuuuuuuuuuuuuuuuuuuuuuuuuuuuuuuuuuuttttttttttttttttttttttttttttttttttttttuuuuuuuuuuuvvvvvvwwwwwwwwwwwwwww
(PID.TID 0003.0001) //    682 ++++++++.......................++++++++++++++zzzzzzzzzyxxwwwwwwvvvvuuuuttuuuuuuuttttttttttssssssssssssssssssssssssssrrrrrrrrrrrrrrrrrrrrrrrrrqqqqqqqqqqqqrrrrrrrrsssssssssssrrrrrssssssssssssstttttttuuuuuuvvvvvwwwwwwwwwwwwwwwwwwwwwwwwwwwwwwwwwwwwwwwwwwwvvvvvvvvvvvvvvvvvuuuuuuuuuuuuuuuuuuuuuuuuuuuuuuuuuuuuuuutttttttttttttttttttttttuuuuuuuuvvvvvvvvwwwwxxxxxxxxxwwwww
(PID.TID 0003.0001) //    681 +++++++++++++++.....++++..........++++++++++++++++zzzzzyyyyyyyxxxwwwvvvvvvuuuuuuuuuuuuuutttttttsssssssssssssssssssssssssrrrrrrrrrrrrrrrrrrrrrrrrrrrrrrrrrrrrrrrrrrrrrrrrrrrrrrrrrrssssssssssssstttttuuuuuuvvvvvwwwwwxxxxxxxxxxxxxxxxxxxxxyyyyyyyyxxxxxxxxxxxxxxxxxxwwwwvvvvvvvvvvvvvvvvvuuuuuuuuuuuuuuuuuuuuuuuuuuuuuttttttttttttttttttttuuuuuuuuvvvvvvvvwwwwwwxxxxxxxxxxxww
(PID.TID 0003.0001) //    680 +++++++..........++.............++........++++++++zzzzzzzzzzzzzzyyyyyxxxwwwvvvvvvvvvuuuuuuuuutttttssssssssssssssssssssssssssssssrrrrrrrrrrrrsrrrrrrrrrrrrrrrrrrrrrrrrrrrrrrrrrrrrrrsssssrrrrssssttttuuuuuvvvwwwwwxxxyyyyyyyyyyyyyyyyyzzzzzzzzzzzzzzzzzzzzzzzzzzzzzzzyyxxwwwwwwwwwwwwwwvvvvvvvuuuuuuuuuuuuuuuuuuuuuuuuuutttttttttttttuuuuuuuuuuuuuuvvvvvvwwwwwwwwxxxxxxxxxwww
(PID.TID 0003.0001) //    679 ++++++++++++++++.+.......................++++++++++zzzzzzz+++++zzzzzzzzzyyyxxwwwwvvvvvvuuuuuuuuuutttttttsssssssssssssssssssssssssssssssssssssssssrrrssssssrrrrrrrrrrrrrrrrrrrrrrrrrrsssssrrrssssttttuuuvvvwwwxxxyyyyzzzzzzzzzzzzzzzzzzzzzzzzzzzzzz+++++++++++++++++zzyyxxxxxxxxxxxxxxwwwwwvvvvvuuuuuuuuuuuuuuuuuuuuuuuuuuuuuuuuuuuuuuuuuuuuuuuuuuuuuvvvvvwwwwwwwxxxxxxxwwwww
(PID.TID 0003.0001) //    678 +++++++++++++++++++......................+++++++.++...++++++++++++++++++zzzzyyyxxxwwwwvvvvuuuuuuuuuuttttttsssttttttttttssssssssssssssssssssssssssssssssssssssssssssssssssssssssssssssssssssssssstttuuvvvwwxxyyyzzzzzzz+++++++++++++++++++++++++++++++++++++++++++++zzzzyyyzzzzzzzyyyyyyxxxwwwvvvvvvuuuuuuuuuuuuuutuuuuuuuuuuuuuuuuuuuuuuuuuuuuuuuuuuuvvvvvvwwwwwwwwwwwwwwwww
(PID.TID 0003.0001) //    677 ++++z++++++++++++++++..+.................+++++.......++...+++++++++++++++++zzzzyyyxxxxwwvvvvvvvuuuuuuuuuuttuuuuttttttttttttttssssssttttttttssssssssttttttttsssssssssssssttttttttttttttsttttttttttuuvvwxxyyzzzzz++++++++++++++++++++++++++++++++++++++++++++++++++++zzzzzzzzzzzzzzzzzzzzzyyyxxxwwwvvvvvvvuuuuuuuuuuuuuuuuuuuuuuuuuuuuuvvvvvvvuuuuuuuuuvvvvvvvvwwwwwwwwwwwwwww
(PID.TID 0003.0001) //    676 +++++++++++++++++++++++++++++++++.......++++++.....+........+.++++++++++++++zzzzzzzyyyxxwwwwvvvvuuuuuuuuuuuuuuuuuuuttttttttttttttttttttttttttttttttttttttttttttttttttttuuuuuvvvvvvvvvvvvvvvvvvwwwxxyyyzzzz+++++++++++++++++++++++++++++++++++++++++++++++++++++++++++++++++++++++++++++zzzzzyyyxxxwwwwwwvvvvvvvvvvvvvvvvvvvvvvvvvvvvvvvvvvvvvvvvvvvvvvvvvvvvvvvwwwwwwwwwwwww
(PID.TID 0003.0001) //    675 +++++++++++++++++++++++++++++++++++++++++++....................++++++++++++++++zzzzzzzzzzyxxwwwvvvvvvvvvvvvvvvvvuuuuuuutttttttttttttttttttttttttttttttttttttttttttuuuuvvvwwwwxxxxyyyyyyyyyyyyyyzzzzz++++++++++++++++++++++++++++++++++++++++++++++++++++++++++++++++++++++++++++++++++++++zzzzzyyyyxxxxxxxxxxxxxxxxxxxxxxxwwwwwwwwwwwwwwwwwwwwwwwwvvvvvvvvvvvvvwwwwwwwwwwwww
(PID.TID 0003.0001) //    674 ++++++++++++++++++++++++++++++++++++++++++.................++++++++++++++++++++++++++++zzzzyxxxxxxxxxwwvvvwwwwwwvvuuuuuuuuuuuuuuuuuuuuuuuuuuuuuuuuuuuuuuuuuuuuuuuuuvvvwwxxxyyzzzzzzz++++++++++++++++++++++++++++++++++++++++++++++++++++++++++++++++++++++++++++++++++++++++++++++++++++++++++zzzzzzyyyyyyyyyzzzzzzzzzyyyyyyxxxxxxxxxxxxxxxwwwwwwwwwwwwwvvwwwwwwwwwwwwwwwwww
(PID.TID 0003.0001) //    673 ++++++++++++++++++++++++++++++++++++++++.....++++++++++++++++++++++++++++++++++++++++zzzzzzzzzzzzzzzzyyxxwxxxyxxxxwvvvvvvvvvuuuuuuuuuuuuuuuuuuuuuuuuuuuuuuuuvvvvvvvwwxxyyzzzz+++++++++++++++++++++++++++++++++++++++++++++++++++++++++++++++++++++++++++++++++++++++++++++++++++++++++++++++++++++zzzzzzzzzzzzz+++++zzzzzzzzzyyyyyyyyxxxxxxxxxxxwwwwwwwwwwwwwwwxxxxxxxxxwwww
(PID.TID 0003.0001) //    672 ++++++++++++++++++++++++++++++++++++++++++++++++++++++++++++++++++++++++++++++++++++zzzzzzzz+++++++++zzzzyxxxyyyzyyyxwwwwwwwwvvvvvvvvvvvvvvvvvvvvvvvvvvuuuvvvwwwxxyyzzzzz++++++++++++++++++++++++++++++++++++++++++++++++++++++++++++++++++++++++++++++++++++++++++++++++++++++++++++++++++++++++++++++++zzz+++++++++++++++++zzzzzyyyyyyyyxxxxxxxxxxxxxxxxxxxxxxxxxxxxxxxwww
(PID.TID 0003.0001) //    671 ++++++++++++++++++++++++++++++++++++++++++++++++++++++........+++++++++++++++++zzz+++zzz+++++++++++++++++zzzyyyyyyzzzyyyxxxxxxxxxxxwwwwwwwwvvvvwwwwwwwwwwwwwwxyzzzz+++++++++++++++++++++++++++++++++++++++++++++++++++++++++++++++++++++++++++++++++++++++++++++++++++++++++++++++++++++++++++++++++++++++++++++++++++++++++++++zzzzzzyyyyyyyxxxxxxxxxxxxxxxxxxxxxxxxxxxxwww
(PID.TID 0003.0001) //    670 ++++++++++++++++++++++++++++++++++++++++++++++++++...............++++++++++++++++++++++++++++++++++++++++++++++zzzzzzzzzzzzzzzzzzzzyyyyyyxxxxxxxxxxxyyyyyyyyzzz++++++++++++++++++++++++++++++++++++++++++++++++++++++++++++++++++++++++++++++++++++++++++++++++++++++++++++++++++++++++++++++++++++++++++++++++z++++++++++++++++++zzzzzzzzyyyyyyxxxxxxxxxxxxxxxyyyyyyxxxxxww
(PID.TID 0003.0001) //    669 +++++++++++++++++++++++++...+++++++++++++++++++............+...+.+++++++++++++++++++++++++++++++++++++++++++++++++++++++++++++++++++zzzzzzzzzzzzzyyyzzzzzz++++++++++++++++++++++++++++++++++++++++++++++++++++++++++++++++++++++++++++++++++++++++++++++++++++++++++++++++++++++++++++++++++++++++++++++++++++++zzzz+++++++++++++++zzzzzzzzzzyyyyyyyyyyyyyyyyyxxxxxyyyyxxxxx
(PID.TID 0003.0001) //    668 ++++++++++++++++++++++++++++++++++++++++++++++.........................++++++++++++++++++++++++++++++++++++++++++++++++++++++++++++++++++++++++++++z+++++++++++++++++++++++++++++++++++++++++++++++++++++++++++++++++++++++++++++++++++++++++++++++++++++++++++++++++++++++++++++++++++++++++++++++++++++++++++++zzzzz++++++++++++++zzzzzzzzzzzzzzzyyyyyyyyyyyxxxxxxxxxyyxxx
(PID.TID 0003.0001) //    667 ++++++++++++++++++++++++++++++++++++++++++++.+.....................+++++++...............+++++++++++++++++++++++++++++++++++++++++++++++++++++++++++++++++++++++++++++++++++++++++++++++++++++++++++++++++++++++++++++++++++++++++++++++++++++++++++++++++++++++++++++++++++++++++++++++++++++++++++++++++++++++++++zzzz+++++++++++++zzzzzzzzzzzzzzzzzzzzzyyyyyxxxxxxxxxxxxx
(PID.TID 0003.0001) //    666 +++++++++++++++++++++++++..+..+++++++++......................................................++++++++++++++++++++++++++++++++++++++++++++++++++++++++++++++++++++++++++++++++++++++++++++++++++++++++++++++++++++++++++++++++++++++++++++++++++++++++++++++++++++++++++++++++++++++++++++++++++++++++++++++++++++++++++++++++++++++++zzzzzzzzzzzzzzzzzzzzzzzyyyyxxxxxxxxyyyy
(PID.TID 0003.0001) //    665 ++++++++++++++..........................++...................................................+..++++++++++++++++++++++++++++++++++++++++++++++++++++++++++++++++++++++++++++++++++++++++++++++++++++...+++++++++.++++++++++++++++++++++++++++++++++++++++++++++++++++++++++++++++++++++++++++++++++++++++++++++++++++++++++++++++++++++++++z+zzzzzzzzzzzzzzzzzyyyyyzzzzyyyyy
(PID.TID 0003.0001) //    664 +++++++++++++...........................+..................................................++....+++++++++++++++++++++++++++++++++++++++++++++++++++++++++++++++++++++++++++++++++++++++++++++++..........+++.............++++++++++++++++++++++++++++++++++++++++++++++++++++++++++++++++++++++++++++++++++++++++++++++++++++++++++++++++++++++zzzzzzzzzzzzzzzzzzzzzzzzzzzz
(PID.TID 0003.0001) //    663 ++...................................++......................................................+.++++++++++++++++++++++++++++++++++++++++++++++++++++++++++++++++++++++++++++++++++++++++++.+++++...................++++.........++++++++++++.++++++++++++++++++++++++++++++++++++++++++++++++++++++++++++++++++++++++++++++++++++++++++++++++++++zzzzzzzzzzzzzzzzz++++++++zzz
(PID.TID 0003.0001) //    662 ........................................++......................................................+++++++++++++++++++++++++++++++++++++++++++++++++++++++++++++++++++++++++++++++++++++++++.++..+....................+........++++++....+.....++++++++++++++++++++++++++++++++++++++++++++++++++++++++++++++++++++++++++++++++++++++++++++++++++++++zzzzzzzz++z+++++++++++++zz
(PID.TID 0003.0001) //    661 ...............................................................................................++++++++++++++++++++++++++++++++++++++++++++++++++++++++++++++++++++++++++++++++++++++++++++++++......................++.+...++++++++.................+++++++++++++++++++++++++++++++++++++++++++++++++++++++++++++++++++++++++++++++++++++++++++++++zzzz+++++++++++++zz++zzz
(PID.TID 0003.0001) //    660 ..........................................................................................++++++++++++++++++++++++++++++++++++++++++++++++++++++++++++++++++++++++++++++++++++++++++++++++++++++++......++..+++...+...++++++++++++++++++++........++++++++++++++++++++++++++++++++++++++++++++++++++++++++++++++++++++++++++++++++++++++++++++++++++++++++++++++++++++++++zz
(PID.TID 0003.0001) //    659 ......................................................................................+++++++++++++++++++++++++++++++++++++++++++++++++++++++++++++++++++++++++++++++++++++++++++++++++++++++++++++++++++++...+.....++++++++++++++++++++++++++++++++++++++++++++++++++++++++++++++++++++++++++++++++++++++++++++++++++++++++++++++++++++++++++++++++++++++++++++++++++++++++
(PID.TID 0003.0001) //    658 ..................................................................................++++++.......++++++++++++++++++++++++++++++++++++++++++++++++++++++++++++++++++++++++++++++++++++++++++++++++++++++++++++++.+.++++++++++++++++++++++++++++++++++++++++++++++++++++++++++++++++++++++++++++++++++++++++++++++++++++++++++++++++++++++++++++++++++++++++++++++++++++++++++++
(PID.TID 0003.0001) //    657 ................................................................................+++++++++++++++++++++++++++++++++++++++++++++++++++++++++++++++++++++++++++++++++++++++++++++++++++++++++.++++++++++++++++....+.++++++++++++++++++++++++++++++++++++++++++++++++++++++++++++++++++++++++++++++++++++++++++++++++++++++++++++++++++++++++++++++++++++++++++++++++++++++++++++
(PID.TID 0003.0001) //    656 ............................................................................+++++......+++++++.+++++++++++++++++++++++++++++++++++++++++++++++++++++++++++++++++++++++++++++++++++++++++++++++++++++++++++++++.......+++++++++++++++++++++++++++++++++++++++++++++++++++++++++++++++++++++++++++++++++++++++++++++++++++++++++++++++++++++++++++++++++++++++++++++++++++++++
(PID.TID 0003.0001) //    655 ........................................................................+++++++++++.............++.+............+++++++++++++++++++++++........++++++++++++++++++++++++++++++++++++++++++++++++++++++++++++++..........+++++++++++++++++++++++++++++++++++++++++++++++++++++++++++++++++++++++++++++++++++++++++++++++++++++++++++++++++++++++++++++++++++++++++++++++++++++
(PID.TID 0003.0001) //    654 .....................................................................++++++.....................++.................+++++++++++++++++++++............+......++++++++++++++++++++++++++++++++++++++++++++++++++++.........++++++++++++++++++++++++++++++++++++++++++++++++++++++++++++++++++++++++++++++++++++++++++++++++++++++++++++++++++++++++++++++++++++++++++++++++++++
(PID.TID 0003.0001) //    653 ..................................................................+........................................................+++++++++++++.......................+++++++++++++++++++++++++++++++++++++++++++++++++++++++++++++++++++++++++++++++++++++++++++++++++++++++++++++++++++++++++++++++++++++++++++++++++++++++++++++++++++++++++++++++++++++++++++++++++++++++++++++
(PID.TID 0003.0001) //    652 ....................................................................................................................................+++............+...........+++++++++++++++++++++++++++++++++++++++++++++...+++++++++++++++++++++++++++++++++++++++++++++++++++++++++++++++++++++++++++++++++++++++++++++++++++++++++++++++++++++++++++++++++++++++++++++++++++++++++++++
(PID.TID 0003.0001) //    651 .............................................................................................................................................+.....+..+...+...+++++++++++++++++++++++++++++++++++++++++++++++++................+++++++++++++++++++++++++++++++++++++++++++++++++++++++++++++++++++++++++++++++++++++++++++++++++++++++++++++++++++++++++++++++++++++++++++++
(PID.TID 0003.0001) //    650 .................................................................................................................................................+.++....+......+++++++++++++++++++++++++++++++++++++++.....................++++++++........++++++++++++++++++++++++++++++++++++++++++++++++++++++++++++++++++++++++++++++++++++++++++++++++++++++++++++++++++++++++++++++++
(PID.TID 0003.0001) //    649 .....................................................................................................................................................+.....+..+++++++++++++++++++++++++++++++++++++++++++.......................+++.+............+++++++++++++++++++++++++++++++++++++++++++++++++++++++++++++++++++++++++++++++++++++++++++++++++++++++++++++++++++++++++++
(PID.TID 0003.0001) //    648 ......................................................................................................................................................+.....++++++++++++++++.++++++++++++++++++++++++++........................++++............+..++++++++++++++++++++++++++++++++++++++++++++++++++++++++++++++++++++++++++++++++++++++++++++++++++++++++++++++++++++++++++
(PID.TID 0003.0001) //    647 ...............................................................................................................................................................++++++++++++....+++++++++...++++....++.+.............................................++++++++++++++++++++++++++++++++++++++++++++++++++++++++++++++++++++++++++++++++++++++++++++++++++++++++++++++++++++++++
(PID.TID 0003.0001) //    646 ...............................................................................................................................................................+++++++++++......................+++.................................................+...+++++++++++++++++++++++++++++++++++++++++++++++++++++++++++++++++++++++++++++++++++++++++++++++++++++++++++++++.....
(PID.TID 0003.0001) //    645 ................................................................................................................................................................+..++++++.................................................................................+++++++++++++..........++++++++++++++++++++++++++++++++++++++++++++++++++++++++++++++++++++++++++++++++++++.......
(PID.TID 0003.0001) //    644 ......................................................................................................................................................................++...............................................................................................................+++++.++++++++++++++++++++++++++++++++++++++++++++++++++++++++++++++++++++++++.++++++
(PID.TID 0003.0001) //    643 .........................................................................................................................................................................................................................................................................................+.+++++++++++++++++++++++++++++++++++++++++++++++++++++++++++++++++++++++++++++++++
(PID.TID 0003.0001) //    642 ..........................................................................................................................................................................................................................................................................................++++++++++++++++++++++++++++++++++++++++++++++++++++++++++++++++++++++++++++++++++
(PID.TID 0003.0001) //    641 .........................................................................................................................................................................................................................................................................................+++++++++++++++++++++++++++++++++++++++++++..++++++++++++++++++++++++++++++++++++++
(PID.TID 0003.0001) //    640 .........................................................................................................................................................................................................................................................................................++++++++++++++++++++++++++++++++.......++++.......................+++++++++++++++++
(PID.TID 0003.0001) //    639 .................................................................................................................................................................................................................................................................................................+...............++++++...+.+..++++.+...........................++++++++++++
(PID.TID 0003.0001) //    638 ..............................................................................................................................................................................................................................................................................................++..............................++++++++..............................++++++++
(PID.TID 0003.0001) //    637 ..............................................................................................................................................................................................................................................................................................++...............................++++++...................................++++
(PID.TID 0003.0001) //    636 ...............................................................................................................................................................................................................................................................................................+.................................+++........................................
(PID.TID 0003.0001) //    635 ............................................................................................................................................................................................................................................................................................................................................................................
(PID.TID 0003.0001) //    634 ............................................................................................................................................................................................................................................................................................................................................................................
(PID.TID 0003.0001) //    633 ............................................................................................................................................................................................................................................................................................................................................................................
(PID.TID 0003.0001) //    632 ............................................................................................................................................................................................................................................................................................................................................................................
(PID.TID 0003.0001) //    631 ............................................................................................................................................................................................................................................................................................................................................................................
(PID.TID 0003.0001) //    630 ............................................................................................................................................................................................................................................................................................................................................................................
(PID.TID 0003.0001) //    629 ............................................................................................................................................................................................................................................................................................................................................................................
(PID.TID 0003.0001) //    628 ............................................................................................................................................................................................................................................................................................................................................................................
(PID.TID 0003.0001) //    627 ............................................................................................................................................................................................................................................................................................................................................................................
(PID.TID 0003.0001) //    626 ...........................................................................................................................................................................................................................................................................................................................................................................+
(PID.TID 0003.0001) //    625 ..........................................................................................................................................................................................................................................................................................................................................................................++
(PID.TID 0003.0001) //    624 ..........................................................................................................................................................................................................................................................................................................................................................................++
(PID.TID 0003.0001) //    623 ............................................................................................................................................................................................................................................................................................................................................................................
(PID.TID 0003.0001) //    622 ...........................................................................................................................................................................................................................................................................................................................................................................+
(PID.TID 0003.0001) //    621 ...........................................................................................................................................................................................................................................................................................................................................................+..............++
(PID.TID 0003.0001) //    620 ........................................................................................................................................................................................................................................................................................................................................................................++++
(PID.TID 0003.0001) //    619 ...................................................................................................................................................................................................................................................................................................................................................................+++++++++
(PID.TID 0003.0001) //    618 ................................................................................................................................................................................................................................................................................................................................................................+.++++++++++
(PID.TID 0003.0001) //    617 ....................................................................................................................................................................................................................................................................................................................................................................++++++++
(PID.TID 0003.0001) //    616 .....................................................................................................................................................................................................................................................................................................................................................................+++++++
(PID.TID 0003.0001) //    615 ...................................................................................................................................................................................................................................................................................................................................................................+++++++++
(PID.TID 0003.0001) //    614 .....................................................................................................................................................................................................................................................................................................................................................................+++++++
(PID.TID 0003.0001) //    613 .......................................................................................................................................................................................................................................................................................................................................................................+++++
(PID.TID 0003.0001) //    612 ........................................................................................................................................................................................................................................................................................................................................................................++++
(PID.TID 0003.0001) //    611 .........................................................................................................................................................................................................................................................................................................++++...........................................................++++
(PID.TID 0003.0001) //    610 .......................................................................................................................................................................................................................................................................................................++++................................................+++++++++++++++++
(PID.TID 0003.0001) //    609 ......................................................................................................................................................................................................................................................................................................++++.............................................+++++++++++++++++++++
(PID.TID 0003.0001) //    608 ....................................................................................................................................................................................................................................................................................++++..++..........++++........................................+++++++++++zzzzzz+++++++++
(PID.TID 0003.0001) //    607 ..............................................................................................................................................................................................................................................................................+++++++++++++........+++++++......................................+++++++++zzzyyxxxyyyzz++++++
(PID.TID 0003.0001) //    606 ............................................................................................................................................................................................................................................................................+++++++++++++........+++++++......................................++++++++zzyxxxwwvvwvvwyzz+z+++
(PID.TID 0003.0001) //    605 ...........................................................................................................................................................................................................................................................................+++++++++++++++.....+++++++++....................................+++++++zyxxxwwwwvvutttuvwwwxyz++
(PID.TID 0003.0001) //    604 .........................................................................................................................................................................................................................................................................++++++++++++++++++..+++++++++++.................................++++++zzzzywvuuuututttssttttttuvxyz
(PID.TID 0003.0001) //    603 ........................................................................................................................................................................................................................................................................++++++++++++++++++++++++++++.......................+...+.......+++zzxxwwwwwvuutssssssssssssssstvwxyy
(PID.TID 0003.0001) //    602 .....................................................................................................................................................................................................................................................................+++++++++++++++++++++++++++++...............++...+++++++++++...++ywwxwuuutuuuttsssrrrrrrssssssssstuvwwx
(PID.TID 0003.0001) //    601 ....................................................................................................................................................................................................................................................................++++++++++z+++++++++++++++++...........+..+++++.+++++++z++z+++..+zxvutttttssssssrrrrrrrrrrrrrssssstuvxxx
(PID.TID 0003.0001) //    600 ...................................................................................................................................................................................................................................................................+++++++++++z++++++++++++++++.........+++++.++++++++++zyxxvvxyy+++zxvuttssssssssrrrrrrrrrrrrrrrrrrsssstvvv
(PID.TID 0003.0001) //    599 ..............................................................................................................................................................................................................................................++++++..++...........+++++++++zz+++++++++++++++..........++++++++++++zwxyxvtttttuvuxzyxwvuttssrrrrrrrrrrrrrrrrrrrrrrrrrrssssss
(PID.TID 0003.0001) //    598 .....................................................................................................................................................................................................................w++++++++++++.++++..+++..+++++++++++..............+++++zz+++++++++++++............++++++++zzzzxxusstsrrssstvxzzyxwvutssrrrrrrrrrrrrrrrrrrrrrrrrrrrrrrss
(PID.TID 0003.0001) //    597 ...................................................................................................................................................................................................................+++++++++++++++++++++++++++++++++.+........+++++++++++++++++++++++++++.............+++++.++xswzyxvvsrrrrrrsstuwyzyyxwuttsrrrrrrrrrrrrrrrrrrrrrrrrrrrrrrrr
(PID.TID 0003.0001) //    596 .................................................................................................................................................................................................................++++++++++++++++++++++++++++++++++++++++++++++++++++++++++++++++++++++++............++++..++urrsssrrrrrrrrrrsstvwyzzyxwvtssrrrrrrrrrrrrrrrrrrrrrrrrrrrrrrrr
(PID.TID 0003.0001) //    595 ................................................................................................................................................................................................................+++++++++++++++++++++++++++++++++++++++++++++++++++++++z+zz++++++++++++............+++++++zxsrrrrrrrrrrrrrrrrstuwyyzzyyxwutsrrrrrrrrrrrrrrrrrrrrrrrrrrrrrrrr
(PID.TID 0003.0001) //    594 .............................................................................................................................................................................................................++++++++++++++++++++++++++++++++++++++++++++++++++z+zzzzzzzzz++++++++++++............+++++++zvssrrrrrrrrrrrrrrrrrrtwyyzzyyxwutsrrrrrrrrrrrrrrrrrrrrrrrrrrrrrrrr
(PID.TID 0003.0001) //    593 ............................................................................................................................................................................................................++++++++++++++++++++++++++++++++++++++++++++++++++zzzzzzzzzzzz+++++++++...............++++++zxtsrrrrrrrrrrrrrrrrrrrsuwyyyyxxwtsrrrrrrrrrrrrrrrrrrrrrrrrrrrrrrrrr
(PID.TID 0003.0001) //    592 ............................................................................................................................................................................................................++++++++++++++++++++++++++++++++++++++++++++++zzzzzzzzzzzzzzz+++++++...................+...+zvssssrrrrrrrrrrrrrrrrrsstvxyyxwvtrrrrrrrrrrrqqqqqrrrqqqqqqqqqrrrrrr
(PID.TID 0003.0001) //    591 .........................................................................................................................................................................................................+++++++++++++++++++++++++++++++++++++++++zzzzzzzzzzzzzzzzzzzzzz++++++........................+zwtsssssrrrrrrrrrrrrrrrssstvxyxxwutrrrrrrrrqqqqqqqqqqqqqqqqqqqqqqqrrr
(PID.TID 0003.0001) //    590 ........................................................................................................................................................................................................+++++++++++++++++++++++++++++++++++++++++zzzzzzzzzzzzzzyyyyzzzz+++++++.......................++zwtttttsssrrrrrrrqrrrrrsttvxxyxwwvusrrrrrqqqqqqqqqqqqqqqqqqqqqqqqqqqr
(PID.TID 0003.0001) //    589 ......................................................................................................................................................................................................++++++++++++++++++++zzzz+++++++++++++++++++++zzzzzzzzzzyyyyyyzz++++++++........................+zyvsttsssssrrrrrqqqrrrrrrtuvwxxwvuuutrrrrqqqqqqqqqqqqqqqqqqqqqqqqqqqqq
(PID.TID 0003.0001) //    588 ....................................................................................................................................................................................................++++++++++++++++++++zzzzzzzz++++++++++++++++++++zzzzzzzzyyyyyyzz+++++++..........................+zytttsssssrrrrrqqqqqrrrrrsuvwxxwvutsrrrqqqqqqqqqqqqqqqqqqqqqqqqqqqqqqq
(PID.TID 0003.0001) //    587 ...................................................................................................................................................................................................+++++++++++++++zz++++zzzzzzzzzz+++++++++++++++++++zzzzzzzyyyyyyzz++++++.............................+wsssrrrrrrqqqqqqqqrrrrrstvwwwvvtsrrrqqqqqqqqqqqqqqqqqqqqqqqqqqqqqqqq
(PID.TID 0003.0001) //    586 .................................................................................................................................................................................................+++++++++++++++zzz++z+++zzzzzzzzzzzzzzzzzz+++zzzzz+zzzzzzzzyyyyyyzz+++++...........................+..+zvsqqqrrrrqqqqqqqqqrrrrrtuuwvuusrrrrqqqqqqqqqqqqqqqqqqqqqqqqqqqqqqqq
(PID.TID 0003.0001) //    585 ................................................................................................................................................................................................++++++++++++++++zzzzzzzzzzzzzzzzzzzzzzzzzzzzzzzzzzzzzzzzzzzzzyyyyyzz+++++.........................+++.+yutqqqqrrrrqqqqqqqqqrrrrrsstvvtsrrrrqqqqqqqqqqqqqqqqqqqqqqqqqqqqqqqqq
(PID.TID 0003.0001) //    584 ..............................................................................................................................................................................................++++++++++++++++++zzzzzzzzzzzzzz+zzzzzzzzzzzzzzzzzzzzzzzzzzzzzzzyyyyzz++++.........................++zywyvtqqqqqstsrqrqqqqqqqqqrrrrrtvusrrrrqqqqqqqqqqqqqqqqqqqqqqqqqqqqqqqqqq
(PID.TID 0003.0001) //    583 ............................................................................................................................................................................................+++++++++++++++++++zzzzzzzzyyyzzzz+zz+++zzzzzzzzzzzzzzzzzzzzzzzzzzzzyyzz++++.........................+zvtrttrooqstxzxvuqqqqqqqqqqqqrrrstsrrrrqqqqqqqqqqqqqqqqqqqqqqrrrqqqqqqqqqq
(PID.TID 0003.0001) //    582 ...........................................................................................................................................................................................++++++++++++++++++zzzzzzzzzzyyyyyyzzzzz++zzzyyyzzzzzzzzzzzzzzzzzzzzzzzzzz++++.........................+ytqqqqnmmmoqty+++yutrqqqqqqqqrrrssrrrqqqqqqqqqqqqqqqqqqqqqqrrrrrrrrqqqqqqq
(PID.TID 0003.0001) //    581 ........................................................................................................................................................................................++++++.+..+++++++++++++++++++++zzyyxxyyyyyyzyyyyyyyyyzzzzzzzzzzzzzzzzzzzzzzzz+++.........................+zvsrqqnmnmmmmosy.+zzytsqqqqqqqqrstrrqqqqqqqqqqqqqqqqqqqqrrvwwwxxwwttrrqqqq
(PID.TID 0003.0001) //    580 ......................................................................................................................................................................................++++++++++..++++++++++++++++++++++zzyxxxxxxxxyyyyyyyyyyyyzzzzzzzzzzzzzzzzzzzzzz++++.........................+yusqpnmmoonlkjkq+++z+zxsqqqqqqrsvsrqqqqqqqqqqqqqqqqrrrswyyyxwwwwyzywvsrqq
(PID.TID 0003.0001) //    579 .............................................................................................................................................................................................++++++++++++++++++++++++++++zyyxwwwwwwxxxxxxyyyyyyyyyzzzzzzzzzzzzzzzzzzz++++.....................+..+zyusponmmopnmllmotxzvz++zwtqqqqrrssrrqqqqqqqqqqqrrrqrrstwxwuvvutuwxyzywsrr
(PID.TID 0003.0001) //    578 ..............................................................................................................................................................................................+..+++++++++++++++++++.++++zyyxwwwwwwwxxxxxxyyyyyyyyyyyzzzzzzzzzzzzzzzz++++..................++++zwyxwuronmnppppoonlloqtvuvvvyyvtrqrsrrrsrqqqqrrrrrrrrstsrrrrrrrrrrrstuvwyzxvr
(PID.TID 0003.0001) //    577 .............................................................................................................................................................................................+.++++++.....++++++++++..+++zyxxwwwwwwwwwxxxxxxxyyyyyyyyyyzzzzzzzzzzzzzz+++++................++zzxussuwtqnlpppqqqpponmlkloqrruvvxzvtrrrrrrrsrrrrrrrrrrrrsrrqqqqqqqqqrstuvvwzzyv
(PID.TID 0003.0001) //    576 ................................................................................................................................................................................................+.+.+......++++++++++.++++yxxwwwwwwwwwwwwwxxxxxxxyyyyyyyyzzzzzzzzzzz++++++...............++zyvtsssttqnlmoqqqqqqqpponmljklnqsttuvvvrrrrrrqqqqqrqqqqqqqqqqqqqqqqqqqrrtuuuuwzyx
(PID.TID 0003.0001) //    575 ...............................................................................................................................................................................................+++.+.........++++++...++++zxwwwwwwwwwwwwwwwwwxxxxxyyyyyyyyyyyyyzzzzz++++++................+yxvtrqrqnkikprssssrqqqqppnmmkjjknqqtvvxvtttssrrqqqqqqqqqqqqqqqqqqqqqqqqrrssstuyyy
(PID.TID 0003.0001) //    574 .......................................................................................................................................................................................................................+++zyxwwwwwwwwwwwwwwwwwxxxxxxyyyyyyyyyyzzzzzz++++++................+xttsqqpnihiknpqsssssrqqqponnnmmkjmqsstvvvyxtutrrrrrrqqqqqqqqqqqqqqqqqqqqrrttttwyy
(PID.TID 0003.0001) //    573 .............................................................................................................................................................................................................+.+++.....+++zzxxwwwwwwwwwwwwwwwwxxxxxxyyyyyyyyyyzzzzzz++++++............+++++xtttsqnlhhjlmnprstsssrqqppoooonmmlkmorsuvxzzxxxxxyzxtrrqrqqqqqqqqqqqqqqqrstttuvyy
[...]
    46 |UVELMASS|     -2 |      3 |   1 |       0 |       0 |
    47 |VVELMASS|     -3 |      2 |   1 |       0 |       0 |
    23 |ETAN    |      4 |      0 |   1 |       0 |
    24 |ETANSQ  |      5 |      0 |   1 |       0 |
    25 |DETADT2 |      6 |      0 |   1 |       0 |
------------------------------------------------------------------------
Global & Regional Statistics diagnostics: Number of lists:     1
------------------------------------------------------------------------
listId=   1 ; file name: dynStDiag
 nFlds, nActive,       freq     &     phase        |                    
    5  |    5  |     -7200.000000         0.000000 |
 Regions:   0
 diag# | name   |   ipt  |  iMate |    Volume   |   mate-Vol. |         
    23 |ETAN    |      1 |      0 | 0.00000E+00 |
    24 |ETANSQ  |      2 |      0 | 0.00000E+00 |
    25 |DETADT2 |      3 |      0 | 0.00000E+00 |
    30 |UVEL    |      4 |      0 | 0.00000E+00 |
    31 |VVEL    |      5 |      0 | 0.00000E+00 |
------------------------------------------------------------------------
(PID.TID 0003.0001) // =======================================================
(PID.TID 0003.0001) // Model current state
(PID.TID 0003.0001) // =======================================================
(PID.TID 0003.0001) 
(PID.TID 0003.0001) SOLVE_FOR_PRESSURE: putPmEinXvector =    F
 cg2d: Sum(rhs),rhsMax =  -2.25791876329922E+01  1.14495937863696E-01
(PID.TID 0003.0001)      cg2d_init_res =   5.57595043933257E+00
(PID.TID 0003.0001)      cg2d_iters(min,last) =      -1     150
(PID.TID 0003.0001)      cg2d_last_res =   9.77527241485838E-11
 Compute Stats, Diag. #    23 "ETAN    " (list#  1) Parms "SM      M1      ", vol(  0 )= 3.638E+14
 Compute Stats, Diag. #    24 "ETANSQ  " (list#  1) Parms "SM P    M1      ", vol(  0 )= 3.638E+14
 Compute Stats, Diag. #    25 "DETADT2 " (list#  1) Parms "SM      M1      ", vol(  0 )= 3.638E+14
 Compute Stats, Diag. #    30 "UVEL    " (list#  1) Parms "UUR     MR      ", vol(  0 )= 1.312E+18
 Compute Stats, Diag. #    31 "VVEL    " (list#  1) Parms "VVR     MR      ", vol(  0 )= 1.307E+18
 cg2d: Sum(rhs),rhsMax =  -1.13347835681965E+02  2.28078926137901E-02
(PID.TID 0003.0001)      cg2d_init_res =   2.61704976326131E+01
(PID.TID 0003.0001)      cg2d_iters(min,last) =      -1     161
(PID.TID 0003.0001)      cg2d_last_res =   9.75641154209793E-11
 cg2d: Sum(rhs),rhsMax =  -1.68539403722215E+02  1.53389961465672E-02
(PID.TID 0003.0001)      cg2d_init_res =   5.78743115320957E+00
(PID.TID 0003.0001)      cg2d_iters(min,last) =      -1     162
(PID.TID 0003.0001)      cg2d_last_res =   8.70908513980654E-11
 cg2d: Sum(rhs),rhsMax =  -1.79193524892269E+02  1.44270015660108E-02
(PID.TID 0003.0001)      cg2d_init_res =   2.22298772893337E+00
(PID.TID 0003.0001)      cg2d_iters(min,last) =      -1     158
(PID.TID 0003.0001)      cg2d_last_res =   9.31586527048822E-11
 cg2d: Sum(rhs),rhsMax =  -1.75735974963064E+02  1.47108482755629E-02
(PID.TID 0003.0001)      cg2d_init_res =   1.25762142163851E+00
(PID.TID 0003.0001)      cg2d_iters(min,last) =      -1     155
(PID.TID 0003.0001)      cg2d_last_res =   9.27097437350873E-11
 cg2d: Sum(rhs),rhsMax =  -1.71103509042002E+02  1.51091306000345E-02
(PID.TID 0003.0001)      cg2d_init_res =   8.71193060495200E-01
(PID.TID 0003.0001)      cg2d_iters(min,last) =      -1     155
(PID.TID 0003.0001)      cg2d_last_res =   8.67950680877768E-11
 cg2d: Sum(rhs),rhsMax =  -1.68495303008664E+02  1.53430108618924E-02
(PID.TID 0003.0001)      cg2d_init_res =   6.26757047482732E-01
(PID.TID 0003.0001)      cg2d_iters(min,last) =      -1     154
(PID.TID 0003.0001)      cg2d_last_res =   8.54152745220329E-11
 cg2d: Sum(rhs),rhsMax =  -1.67453109838588E+02  1.54385025559199E-02
(PID.TID 0003.0001)      cg2d_init_res =   4.75148745523207E-01
(PID.TID 0003.0001)      cg2d_iters(min,last) =      -1     152
(PID.TID 0003.0001)      cg2d_last_res =   9.30160196696174E-11
 cg2d: Sum(rhs),rhsMax =  -1.67035955761563E+02  1.54770585318174E-02
(PID.TID 0003.0001)      cg2d_init_res =   3.87725735721705E-01
(PID.TID 0003.0001)      cg2d_iters(min,last) =      -1     151
(PID.TID 0003.0001)      cg2d_last_res =   9.32264585591224E-11
 Compute Stats, Diag. #    23 "ETAN    " (list#  1) Parms "SM      M1      ", vol(  0 )= 3.638E+14
 Compute Stats, Diag. #    24 "ETANSQ  " (list#  1) Parms "SM P    M1      ", vol(  0 )= 3.638E+14
 Compute Stats, Diag. #    25 "DETADT2 " (list#  1) Parms "SM      M1      ", vol(  0 )= 3.638E+14
 Compute Stats, Diag. #    30 "UVEL    " (list#  1) Parms "UUR     MR      ", vol(  0 )= 1.312E+18
 Compute Stats, Diag. #    31 "VVEL    " (list#  1) Parms "VVR     MR      ", vol(  0 )= 1.307E+18
 cg2d: Sum(rhs),rhsMax =  -1.66686007201603E+02  1.55095518072673E-02
(PID.TID 0003.0001)      cg2d_init_res =   3.31198892665601E-01
(PID.TID 0003.0001)      cg2d_iters(min,last) =      -1     150
(PID.TID 0003.0001)      cg2d_last_res =   9.27230669226344E-11
 cg2d: Sum(rhs),rhsMax =  -1.66226705984064E+02  1.55524062691082E-02
(PID.TID 0003.0001)      cg2d_init_res =   2.88820893317685E-01
(PID.TID 0003.0001)      cg2d_iters(min,last) =      -1     149
(PID.TID 0003.0001)      cg2d_last_res =   9.18700606864258E-11
 cg2d: Sum(rhs),rhsMax =  -1.65672443052099E+02  1.56044373862874E-02
(PID.TID 0003.0001)      cg2d_init_res =   2.55273789258615E-01
(PID.TID 0003.0001)      cg2d_iters(min,last) =      -1     151
(PID.TID 0003.0001)      cg2d_last_res =   8.94240043875620E-11
 cg2d: Sum(rhs),rhsMax =  -1.65081649567260E+02  1.56602824784984E-02
(PID.TID 0003.0001)      cg2d_init_res =   2.29550406167163E-01
(PID.TID 0003.0001)      cg2d_iters(min,last) =      -1     151
(PID.TID 0003.0001)      cg2d_last_res =   8.72880067235639E-11
 cg2d: Sum(rhs),rhsMax =  -1.64493806377813E+02  1.57162468372941E-02
(PID.TID 0003.0001)      cg2d_init_res =   2.11478334665285E-01
(PID.TID 0003.0001)      cg2d_iters(min,last) =      -1     152
(PID.TID 0003.0001)      cg2d_last_res =   9.38963073343035E-11
 cg2d: Sum(rhs),rhsMax =  -1.63921029557040E+02  1.57711629265981E-02
(PID.TID 0003.0001)      cg2d_init_res =   1.99790519993687E-01
(PID.TID 0003.0001)      cg2d_iters(min,last) =      -1     344
(PID.TID 0003.0001)      cg2d_last_res =   9.90593302757657E-11
 cg2d: Sum(rhs),rhsMax =  -1.63359154858556E+02  1.58254079269582E-02
(PID.TID 0003.0001)      cg2d_init_res =   1.91758320834221E-01
(PID.TID 0003.0001)      cg2d_iters(min,last) =      -1    1015
(PID.TID 0003.0001)      cg2d_last_res =   9.97230421969551E-11
 cg2d: Sum(rhs),rhsMax =  -1.62799066688953E+02  1.58798531024693E-02
(PID.TID 0003.0001)      cg2d_init_res =   1.84577412541394E-01
(PID.TID 0003.0001)      cg2d_iters(min,last) =      -1    1058
(PID.TID 0003.0001)      cg2d_last_res =   9.93690931095078E-11
 Compute Stats, Diag. #    23 "ETAN    " (list#  1) Parms "SM      M1      ", vol(  0 )= 3.638E+14
 Compute Stats, Diag. #    24 "ETANSQ  " (list#  1) Parms "SM P    M1      ", vol(  0 )= 3.638E+14
 Compute Stats, Diag. #    25 "DETADT2 " (list#  1) Parms "SM      M1      ", vol(  0 )= 3.638E+14
 Compute Stats, Diag. #    30 "UVEL    " (list#  1) Parms "UUR     MR      ", vol(  0 )= 1.312E+18
 Compute Stats, Diag. #    31 "VVEL    " (list#  1) Parms "VVR     MR      ", vol(  0 )= 1.307E+18
 cg2d: Sum(rhs),rhsMax =  -1.62232861202834E+02  1.59352750427521E-02
(PID.TID 0003.0001)      cg2d_init_res =   1.76749087239882E-01
(PID.TID 0003.0001)      cg2d_iters(min,last) =      -1    1085
(PID.TID 0003.0001)      cg2d_last_res =   9.98702670936855E-11
 cg2d: Sum(rhs),rhsMax =  -1.61655812568468E+02  1.59921578022122E-02
(PID.TID 0003.0001)      cg2d_init_res =   1.68228699918603E-01
(PID.TID 0003.0001)      cg2d_iters(min,last) =      -1    1041
(PID.TID 0003.0001)      cg2d_last_res =   9.97588805457050E-11
 cg2d: Sum(rhs),rhsMax =  -1.61066338755840E+02  1.60506862216492E-02
(PID.TID 0003.0001)      cg2d_init_res =   1.59815659601339E-01
(PID.TID 0003.0001)      cg2d_iters(min,last) =      -1    1083
(PID.TID 0003.0001)      cg2d_last_res =   9.88348523710851E-11
 cg2d: Sum(rhs),rhsMax =  -1.60465386869400E+02  1.61107969430431E-02
(PID.TID 0003.0001)      cg2d_init_res =   1.52457335945902E-01
(PID.TID 0003.0001)      cg2d_iters(min,last) =      -1    1009
(PID.TID 0003.0001)      cg2d_last_res =   9.98637360942160E-11
 cg2d: Sum(rhs),rhsMax =  -1.59855726660764E+02  1.61722405461647E-02
(PID.TID 0003.0001)      cg2d_init_res =   1.46710426792109E-01
(PID.TID 0003.0001)      cg2d_iters(min,last) =      -1    1080
(PID.TID 0003.0001)      cg2d_last_res =   9.96344333560174E-11
 cg2d: Sum(rhs),rhsMax =  -1.59241176995250E+02  1.62346530779338E-02
(PID.TID 0003.0001)      cg2d_init_res =   1.42509559807618E-01
(PID.TID 0003.0001)      cg2d_iters(min,last) =      -1    1023
(PID.TID 0003.0001)      cg2d_last_res =   9.99455703203675E-11
 Computing Diagnostic #    48 "WVELMASS" (list#  1) Parms "WM      LR      ", Count=       1
 Post-Processing Diag #    49 "PhiVEL  " (list#  1) Parms "SMR P   MR      "
   from diag: UVELMASS (#    46) Cnt=       1 and diag: VVELMASS (#    47) Cnt=       1
 diag_cg2d (it=       22) a2dNorm,x2dNorm= 5.134525E-07 , 3.399538E-02 ; Criter= 1.00E-10
 diag_cg2d : k=   1 , it=  4997  5000 ; ini,min,last_Res= 4.0133062E+01 2.7405189E-05 2.7523375E-05
  get Post-Proc. Diag #     50  PsiVEL   from previous computation of Diag #     49
 Computing Diagnostic #    46 "UVELMASS" (list#  2) Parms "UUr     MR      ", Count=       1
             Vector  Mate for "UVELMASS" :  Diagnostic #     47 "VVELMASS" exists
 Computing Diagnostic #    47 "VVELMASS" (list#  2) Parms "VVr     MR      ", Count=       1
             Vector  Mate for "VVELMASS" :  Diagnostic #     46 "UVELMASS" exists
 Computing Diagnostic #    23 "ETAN    " (list#  2) Parms "SM      M1      ", Count=       1
 Computing Diagnostic #    24 "ETANSQ  " (list#  2) Parms "SM P    M1      ", Count=       1
 Computing Diagnostic #    25 "DETADT2 " (list#  2) Parms "SM      M1      ", Count=       1
 cg2d: Sum(rhs),rhsMax =  -1.58625749292528E+02  1.62976394171174E-02
(PID.TID 0003.0001)      cg2d_init_res =   1.39330219847622E-01
(PID.TID 0003.0001)      cg2d_iters(min,last) =      -1    1092
(PID.TID 0003.0001)      cg2d_last_res =   9.87330665110372E-11
(PID.TID 0003.0001) %CHECKPOINT        24 ckptA
(PID.TID 0003.0001)   Seconds in section "ALL                    [THE_MODEL_MAIN]":
(PID.TID 0003.0001)           User time:   295.65304579213262
(PID.TID 0003.0001)         System time:   5.1104769092053175
(PID.TID 0003.0001)     Wall clock time:   482.80465698242188
(PID.TID 0003.0001)          No. starts:           1
(PID.TID 0003.0001)           No. stops:           1
(PID.TID 0003.0001)   Seconds in section "INITIALISE_FIXED       [THE_MODEL_MAIN]":
(PID.TID 0003.0001)           User time:  0.59032902866601944
(PID.TID 0003.0001)         System time:   3.8047000765800476E-002
(PID.TID 0003.0001)     Wall clock time:   1.8045730590820312
(PID.TID 0003.0001)          No. starts:           1
(PID.TID 0003.0001)           No. stops:           1
(PID.TID 0003.0001)   Seconds in section "THE_MAIN_LOOP          [THE_MODEL_MAIN]":
(PID.TID 0003.0001)           User time:   295.06270080804825
(PID.TID 0003.0001)         System time:   5.0724209100008011
(PID.TID 0003.0001)     Wall clock time:   481.00005292892456
(PID.TID 0003.0001)          No. starts:           1
(PID.TID 0003.0001)           No. stops:           1
(PID.TID 0003.0001)   Seconds in section "INITIALISE_VARIA    [THE_MAIN_LOOP]":
(PID.TID 0003.0001)           User time:  0.37267303466796875
(PID.TID 0003.0001)         System time:   4.7593001276254654E-002
(PID.TID 0003.0001)     Wall clock time:   1.2899448871612549
(PID.TID 0003.0001)          No. starts:           1
(PID.TID 0003.0001)           No. stops:           1
(PID.TID 0003.0001)   Seconds in section "MAIN LOOP           [THE_MAIN_LOOP]":
(PID.TID 0003.0001)           User time:   294.68997728824615
(PID.TID 0003.0001)         System time:   5.0248209089040756
(PID.TID 0003.0001)     Wall clock time:   479.71007704734802
(PID.TID 0003.0001)          No. starts:           1
(PID.TID 0003.0001)           No. stops:           1
(PID.TID 0003.0001)   Seconds in section "MAIN_DO_LOOP        [THE_MAIN_LOOP]":
(PID.TID 0003.0001)           User time:   294.68985152244568
(PID.TID 0003.0001)         System time:   5.0248062908649445
(PID.TID 0003.0001)     Wall clock time:   479.70987582206726
(PID.TID 0003.0001)          No. starts:          24
(PID.TID 0003.0001)           No. stops:          24
(PID.TID 0003.0001)   Seconds in section "FORWARD_STEP        [MAIN_DO_LOOP]":
(PID.TID 0003.0001)           User time:   294.68950307369232
(PID.TID 0003.0001)         System time:   5.0247783958911896
(PID.TID 0003.0001)     Wall clock time:   479.70932030677795
(PID.TID 0003.0001)          No. starts:          24
(PID.TID 0003.0001)           No. stops:          24
(PID.TID 0003.0001)   Seconds in section "DO_STATEVARS_DIAGS  [FORWARD_STEP]":
(PID.TID 0003.0001)           User time:   2.7012109756469727E-002
(PID.TID 0003.0001)         System time:   1.0243296623229980E-002
(PID.TID 0003.0001)     Wall clock time:   8.3970546722412109E-002
(PID.TID 0003.0001)          No. starts:          48
(PID.TID 0003.0001)           No. stops:          48
(PID.TID 0003.0001)   Seconds in section "LOAD_FIELDS_DRIVER  [FORWARD_STEP]":
(PID.TID 0003.0001)           User time:   3.1056404113769531E-003
(PID.TID 0003.0001)         System time:   1.5951231122016907E-002
(PID.TID 0003.0001)     Wall clock time:   5.7070255279541016E-002
(PID.TID 0003.0001)          No. starts:          24
(PID.TID 0003.0001)           No. stops:          24
(PID.TID 0003.0001)   Seconds in section "EXTERNAL_FLDS_LOAD [LOAD_FLDS_DRIVER]":
(PID.TID 0003.0001)           User time:   1.8393993377685547E-004
(PID.TID 0003.0001)         System time:   4.8711895942687988E-005
(PID.TID 0003.0001)     Wall clock time:   4.1723251342773438E-004
(PID.TID 0003.0001)          No. starts:          24
(PID.TID 0003.0001)           No. stops:          24
(PID.TID 0003.0001)   Seconds in section "DO_ATMOSPHERIC_PHYS [FORWARD_STEP]":
(PID.TID 0003.0001)           User time:   1.6498565673828125E-004
(PID.TID 0003.0001)         System time:   2.3834407329559326E-005
(PID.TID 0003.0001)     Wall clock time:   3.2496452331542969E-004
(PID.TID 0003.0001)          No. starts:          24
(PID.TID 0003.0001)           No. stops:          24
(PID.TID 0003.0001)   Seconds in section "DO_OCEANIC_PHYS     [FORWARD_STEP]":
(PID.TID 0003.0001)           User time:   3.0556321144104004E-002
(PID.TID 0003.0001)         System time:  0.22741147875785828
(PID.TID 0003.0001)     Wall clock time:   1.0503516197204590
(PID.TID 0003.0001)          No. starts:          24
(PID.TID 0003.0001)           No. stops:          24
(PID.TID 0003.0001)   Seconds in section "THERMODYNAMICS      [FORWARD_STEP]":
(PID.TID 0003.0001)           User time:   1.1574268341064453E-002
(PID.TID 0003.0001)         System time:  0.10858728736639023
(PID.TID 0003.0001)     Wall clock time:  0.48525166511535645
(PID.TID 0003.0001)          No. starts:          24
(PID.TID 0003.0001)           No. stops:          24
(PID.TID 0003.0001)   Seconds in section "DYNAMICS            [FORWARD_STEP]":
(PID.TID 0003.0001)           User time:  0.31416308879852295
(PID.TID 0003.0001)         System time:   1.3019454926252365
(PID.TID 0003.0001)     Wall clock time:   7.3484106063842773
(PID.TID 0003.0001)          No. starts:          24
(PID.TID 0003.0001)           No. stops:          24
(PID.TID 0003.0001)   Seconds in section "SOLVE_FOR_PRESSURE  [FORWARD_STEP]":
(PID.TID 0003.0001)           User time:   202.84030437469482
(PID.TID 0003.0001)         System time:   1.8677430599927902
(PID.TID 0003.0001)     Wall clock time:   318.63059115409851
(PID.TID 0003.0001)          No. starts:          24
(PID.TID 0003.0001)           No. stops:          24
(PID.TID 0003.0001)   Seconds in section "MOM_CORRECTION_STEP [FORWARD_STEP]":
(PID.TID 0003.0001)           User time:   3.5520315170288086E-002
(PID.TID 0003.0001)         System time:  0.16909138858318329
(PID.TID 0003.0001)     Wall clock time:  0.46287035942077637
(PID.TID 0003.0001)          No. starts:          24
(PID.TID 0003.0001)           No. stops:          24
(PID.TID 0003.0001)   Seconds in section "INTEGR_CONTINUITY   [FORWARD_STEP]":
(PID.TID 0003.0001)           User time:  0.35594534873962402
(PID.TID 0003.0001)         System time:  0.31537570059299469
(PID.TID 0003.0001)     Wall clock time:   1.7458574771881104
(PID.TID 0003.0001)          No. starts:          24
(PID.TID 0003.0001)           No. stops:          24
(PID.TID 0003.0001)   Seconds in section "TRC_CORRECTION_STEP [FORWARD_STEP]":
(PID.TID 0003.0001)           User time:   1.7809867858886719E-004
(PID.TID 0003.0001)         System time:   1.9237399101257324E-005
(PID.TID 0003.0001)     Wall clock time:   2.1481513977050781E-004
(PID.TID 0003.0001)          No. starts:          24
(PID.TID 0003.0001)           No. stops:          24
(PID.TID 0003.0001)   Seconds in section "BLOCKING_EXCHANGES  [FORWARD_STEP]":
(PID.TID 0003.0001)           User time:  0.43944334983825684
(PID.TID 0003.0001)         System time:   3.7230074405670166E-002
(PID.TID 0003.0001)     Wall clock time:  0.75295877456665039
(PID.TID 0003.0001)          No. starts:          24
(PID.TID 0003.0001)           No. stops:          24
(PID.TID 0003.0001)   Seconds in section "MONITOR             [FORWARD_STEP]":
(PID.TID 0003.0001)           User time:   2.4200756549835205
(PID.TID 0003.0001)         System time:  0.16359183192253113
(PID.TID 0003.0001)     Wall clock time:   4.0196638107299805
(PID.TID 0003.0001)          No. starts:          24
(PID.TID 0003.0001)           No. stops:          24
(PID.TID 0003.0001)   Seconds in section "DO_THE_MODEL_IO     [FORWARD_STEP]":
(PID.TID 0003.0001)           User time:   88.100107192993164
(PID.TID 0003.0001)         System time:  0.80393652617931366
(PID.TID 0003.0001)     Wall clock time:   144.92346930503845
(PID.TID 0003.0001)          No. starts:          24
(PID.TID 0003.0001)           No. stops:          24
(PID.TID 0003.0001)   Seconds in section "DO_WRITE_PICKUP     [FORWARD_STEP]":
(PID.TID 0003.0001)           User time:  0.10852909088134766
(PID.TID 0003.0001)         System time:   2.6410073041915894E-003
(PID.TID 0003.0001)     Wall clock time:  0.14201736450195312
(PID.TID 0003.0001)          No. starts:          24
(PID.TID 0003.0001)           No. stops:          24
(PID.TID 0003.0001) // ======================================================
(PID.TID 0003.0001) // Tile <-> Tile communication statistics
(PID.TID 0003.0001) // ======================================================
(PID.TID 0003.0001) // o Tile number: 000006
(PID.TID 0003.0001) //         No. X exchanges =              0
(PID.TID 0003.0001) //            Max. X spins =              0
(PID.TID 0003.0001) //            Min. X spins =     1000000000
(PID.TID 0003.0001) //          Total. X spins =              0
(PID.TID 0003.0001) //            Avg. X spins =       0.00E+00
(PID.TID 0003.0001) //         No. Y exchanges =              0
(PID.TID 0003.0001) //            Max. Y spins =              0
(PID.TID 0003.0001) //            Min. Y spins =     1000000000
(PID.TID 0003.0001) //          Total. Y spins =              0
(PID.TID 0003.0001) //            Avg. Y spins =       0.00E+00
(PID.TID 0003.0001) // o Thread number: 000001
(PID.TID 0003.0001) //            No. barriers =         105438
(PID.TID 0003.0001) //      Max. barrier spins =              1
(PID.TID 0003.0001) //      Min. barrier spins =              1
(PID.TID 0003.0001) //     Total barrier spins =         105438
(PID.TID 0003.0001) //      Avg. barrier spins =       1.00E+00
PROGRAM MAIN: Execution ended Normally
