(PID.TID 0000.0001) 
(PID.TID 0000.0001) // ======================================================
(PID.TID 0000.0001) //                      MITgcm UV
(PID.TID 0000.0001) //                      =========
(PID.TID 0000.0001) // ======================================================
(PID.TID 0000.0001) // execution environment starting up...
(PID.TID 0000.0001) 
(PID.TID 0000.0001) // MITgcmUV version:  checkpoint69m
(PID.TID 0000.0001) // Build user:        hodahashemi
(PID.TID 0000.0001) // Build host:        Hodas-MacBook-Pro.local
(PID.TID 0000.0001) // Build date:        Wed May 13 09:19:31 EEST 2026
(PID.TID 0000.0001) 
(PID.TID 0000.0001) // =======================================================
(PID.TID 0000.0001) // Execution Environment parameter file "eedata"
(PID.TID 0000.0001) // =======================================================
(PID.TID 0000.0001) ># Example "eedata" file
(PID.TID 0000.0001) ># Lines beginning "#" are comments
(PID.TID 0000.0001) ># nTx - No. threads per process in X
(PID.TID 0000.0001) ># nTy - No. threads per process in Y
(PID.TID 0000.0001) > &EEPARMS
(PID.TID 0000.0001) > /
(PID.TID 0000.0001) ># Note: Some systems use & as the
(PID.TID 0000.0001) ># namelist terminator. Other systems
(PID.TID 0000.0001) ># use a / character (as shown here).
(PID.TID 0000.0001) 
(PID.TID 0000.0001) // =======================================================
(PID.TID 0000.0001) // Computational Grid Specification ( see files "SIZE.h" )
(PID.TID 0000.0001) //                                  ( and "eedata"       )
(PID.TID 0000.0001) // =======================================================
(PID.TID 0000.0001)      nPx =    4 ; /* No. processes in X */
(PID.TID 0000.0001)      nPy =    2 ; /* No. processes in Y */
(PID.TID 0000.0001)      nSx =    1 ; /* No. tiles in X per process */
(PID.TID 0000.0001)      nSy =    1 ; /* No. tiles in Y per process */
(PID.TID 0000.0001)      sNx =  360 ; /* Tile size in X */
(PID.TID 0000.0001)      sNy =  360 ; /* Tile size in Y */
(PID.TID 0000.0001)      OLx =    2 ; /* Tile overlap distance in X */
(PID.TID 0000.0001)      OLy =    2 ; /* Tile overlap distance in Y */
(PID.TID 0000.0001)      nTx =    1 ; /* No. threads in X per process */
(PID.TID 0000.0001)      nTy =    1 ; /* No. threads in Y per process */
(PID.TID 0000.0001)       Nr =    1 ; /* No. levels in the vertical   */
(PID.TID 0000.0001)       Nx = 1440 ; /* Total domain size in X ( = nPx*nSx*sNx ) */
(PID.TID 0000.0001)       Ny =  720 ; /* Total domain size in Y ( = nPy*nSy*sNy ) */
(PID.TID 0000.0001)   nTiles =    1 ; /* Total no. tiles per process ( = nSx*nSy ) */
(PID.TID 0000.0001)   nProcs =    8 ; /* Total no. processes ( = nPx*nPy ) */
(PID.TID 0000.0001) nThreads =    1 ; /* Total no. threads per process ( = nTx*nTy ) */
(PID.TID 0000.0001) usingMPI =    T ; /* Flag used to control whether MPI is in use */
(PID.TID 0000.0001)                   /*  note: To execute a program with MPI calls */
(PID.TID 0000.0001)                   /*  it must be launched appropriately e.g     */
(PID.TID 0000.0001)                   /*  "mpirun -np 64 ......"                    */
(PID.TID 0000.0001) useCoupler=   F ; /* Flag used to control communications with   */
(PID.TID 0000.0001)                   /*  other model components, through a coupler */
(PID.TID 0000.0001) useNest2W_parent =    F ;/* Control 2-W Nesting comm */
(PID.TID 0000.0001) useNest2W_child  =    F ;/* Control 2-W Nesting comm */
(PID.TID 0000.0001) debugMode =    F ; /* print debug msg. (sequence of S/R calls)  */
(PID.TID 0000.0001) printMapIncludesZeros=    F ; /* print zeros in Std.Output maps */
(PID.TID 0000.0001) maxLengthPrt1D=   65 /* maxLength of 1D array printed to StdOut */
(PID.TID 0000.0001) 
(PID.TID 0000.0001) ======= Starting MPI parallel Run =========
(PID.TID 0000.0001)  My Processor Name (len: 23 ) = Hodas-MacBook-Pro.local
(PID.TID 0000.0001)  Located at (  0,  0) on processor grid (0:  3,0:  1)
(PID.TID 0000.0001)  Origin at  (     1,     1) on global grid (1:  1440,1:   720)
(PID.TID 0000.0001)  North neighbor = processor 0001
(PID.TID 0000.0001)  South neighbor = processor 0001
(PID.TID 0000.0001)   East neighbor = processor 0002
(PID.TID 0000.0001)   West neighbor = processor 0006
(PID.TID 0000.0001) // ======================================================
(PID.TID 0000.0001) // Mapping of tiles to threads
(PID.TID 0000.0001) // ======================================================
(PID.TID 0000.0001) // -o- Thread   1, tiles (   1:   1,   1:   1)
(PID.TID 0000.0001) 
(PID.TID 0000.0001) // ======================================================
(PID.TID 0000.0001) // Tile <-> Tile connectvity table
(PID.TID 0000.0001) // ======================================================
(PID.TID 0000.0001) // Tile number: 000001 (process no. = 000000)
(PID.TID 0000.0001) //        WEST: Tile = 000004, Process = 000006, Comm = messages
(PID.TID 0000.0001) //                bi = 000001, bj = 000001
(PID.TID 0000.0001) //        EAST: Tile = 000002, Process = 000002, Comm = messages
(PID.TID 0000.0001) //                bi = 000001, bj = 000001
(PID.TID 0000.0001) //       SOUTH: Tile = 000005, Process = 000001, Comm = messages
(PID.TID 0000.0001) //                bi = 000001, bj = 000001
(PID.TID 0000.0001) //       NORTH: Tile = 000005, Process = 000001, Comm = messages
(PID.TID 0000.0001) //                bi = 000001, bj = 000001
(PID.TID 0000.0001) 
(PID.TID 0000.0001)  INI_PARMS: opening model parameter file "data"
(PID.TID 0000.0001)  OPEN_COPY_DATA_FILE: opening file data
(PID.TID 0000.0001) // =======================================================
(PID.TID 0000.0001) // Parameter file "data"
(PID.TID 0000.0001) // =======================================================
(PID.TID 0000.0001) ># ===============================================================
(PID.TID 0000.0001) ># Vortex Sphere MITgcm Reference Case (MITgcm native solve)
(PID.TID 0000.0001) ># One-layer, global lat-lon, linearized barotropic dynamics.
(PID.TID 0000.0001) ># ===============================================================
(PID.TID 0000.0001) >
(PID.TID 0000.0001) ># Continuous equation parameters
(PID.TID 0000.0001) >&PARM01
(PID.TID 0000.0001) ># Planet / fluid
(PID.TID 0000.0001) > omega = 7.292E-5,
(PID.TID 0000.0001) > gravity = 9.81,
(PID.TID 0000.0001) > rhoConst = 1000.,
(PID.TID 0000.0001) > buoyancyRelation = 'OCEANIC',
(PID.TID 0000.0001) > eosType = 'LINEAR',
(PID.TID 0000.0001) >
(PID.TID 0000.0001) ># Dynamics switches
(PID.TID 0000.0001) > rigidLid = .FALSE.,
(PID.TID 0000.0001) > implicitFreeSurface = .TRUE.,
(PID.TID 0000.0001) > exactConserv = .TRUE.,
(PID.TID 0000.0001) > momStepping = .TRUE.,
(PID.TID 0000.0001) > momAdvection = .FALSE.,
(PID.TID 0000.0001) > useCoriolis = .TRUE.,
(PID.TID 0000.0001) > tempStepping = .FALSE.,
(PID.TID 0000.0001) > saltStepping = .FALSE.,
(PID.TID 0000.0001) >
(PID.TID 0000.0001) ># Viscosity / diffusion (set to zero to stay close to inviscid linear regime)
(PID.TID 0000.0001) > viscAh = 0.,
(PID.TID 0000.0001) > viscA4 = 0.,
(PID.TID 0000.0001) > diffKhT = 0.,
(PID.TID 0000.0001) > no_slip_sides = .FALSE.,
(PID.TID 0000.0001) > no_slip_bottom = .FALSE.,
(PID.TID 0000.0001) > hFacMin = 1.E-5,
(PID.TID 0000.0001) > hFacMinDr = 0.5,
(PID.TID 0000.0001) >
(PID.TID 0000.0001) ># I/O precision
(PID.TID 0000.0001) > readBinaryPrec = 32,
(PID.TID 0000.0001) > writeBinaryPrec = 64,
(PID.TID 0000.0001) > useSingleCpuIO = .TRUE.,
(PID.TID 0000.0001) >/
(PID.TID 0000.0001) >
(PID.TID 0000.0001) ># Elliptic solver parameters
(PID.TID 0000.0001) >&PARM02
(PID.TID 0000.0001) > cg2dMaxIters = 5000,
(PID.TID 0000.0001) > cg2dTargetResidual = 1.E-10,
(PID.TID 0000.0001) > cg2dPreCondFreq = 1,
(PID.TID 0000.0001) >/
(PID.TID 0000.0001) >
(PID.TID 0000.0001) ># Time stepping parameters
(PID.TID 0000.0001) >&PARM03
(PID.TID 0000.0001) > nIter0=0,
(PID.TID 0000.0001) > nTimeSteps=24 ,
(PID.TID 0000.0001) > abEps=0.1,
(PID.TID 0000.0001) > deltaT=900.,
(PID.TID 0000.0001) > cAdjFreq=0.,
(PID.TID 0000.0001) > pChkptFreq=0.,
(PID.TID 0000.0001) > chkptFreq=0.,
(PID.TID 0000.0001) > dumpFreq=10800.,
(PID.TID 0000.0001) > monitorSelect=1,
(PID.TID 0000.0001) > monitorFreq=1.,
(PID.TID 0000.0001) >/
(PID.TID 0000.0001) >
(PID.TID 0000.0001) ># Grid parameters
(PID.TID 0000.0001) >&PARM04
(PID.TID 0000.0001) > usingSphericalPolarGrid = .TRUE.,
(PID.TID 0000.0001) > delX = 1440*0.25,
(PID.TID 0000.0001) > delY = 720*0.25,
(PID.TID 0000.0001) > xgOrigin = 0.,
(PID.TID 0000.0001) > ygOrigin = -90.,
(PID.TID 0000.0001) > rSphere = 6371000.,
(PID.TID 0000.0001) > delR = 11000.,
(PID.TID 0000.0001) >/
(PID.TID 0000.0001) >
(PID.TID 0000.0001) ># Input datasets
(PID.TID 0000.0001) >&PARM05
(PID.TID 0000.0001) > bathyFile = 'bathymetry.bin',
(PID.TID 0000.0001) > pSurfInitFile = 'eta_init.bin',
(PID.TID 0000.0001) > uVelInitFile  = 'u_init.bin'
(PID.TID 0000.0001) > vVelInitFile  = 'v_init.bin'
(PID.TID 0000.0001) >/
(PID.TID 0000.0001) >
(PID.TID 0000.0001) 
(PID.TID 0000.0001)  INI_PARMS ; starts to read PARM01
(PID.TID 0000.0001)  INI_PARMS ; read PARM01 : OK
(PID.TID 0000.0001)  INI_PARMS ; starts to read PARM02
(PID.TID 0000.0001)  INI_PARMS ; read PARM02 : OK
(PID.TID 0000.0001)  INI_PARMS ; starts to read PARM03
(PID.TID 0000.0001)  INI_PARMS ; read PARM03 : OK
(PID.TID 0000.0001)  INI_PARMS ; starts to read PARM04
(PID.TID 0000.0001)  INI_PARMS ; read PARM04 : OK
(PID.TID 0000.0001)  INI_PARMS ; starts to read PARM05
(PID.TID 0000.0001)  INI_PARMS ; read PARM05 : OK
(PID.TID 0000.0001)  INI_PARMS: finished reading file "data"
(PID.TID 0000.0001)  PACKAGES_BOOT: opening data.pkg
(PID.TID 0000.0001)  OPEN_COPY_DATA_FILE: opening file data.pkg
(PID.TID 0000.0001) // =======================================================
(PID.TID 0000.0001) // Parameter file "data.pkg"
(PID.TID 0000.0001) // =======================================================
(PID.TID 0000.0001) ># Packages
(PID.TID 0000.0001) > &PACKAGES
(PID.TID 0000.0001) > useDiagnostics=.TRUE.,
(PID.TID 0000.0001) > /
(PID.TID 0000.0001) 
(PID.TID 0000.0001)  PACKAGES_BOOT: finished reading data.pkg
(PID.TID 0000.0001)  PACKAGES_BOOT: On/Off package Summary
 --------  pkgs with a standard "usePKG" On/Off switch in "data.pkg":  --------
 pkg/diagnostics          compiled   and   used ( useDiagnostics           = T )
 pkg/mypackage            compiled but not used ( useMYPACKAGE             = F )
 -------- pkgs without standard "usePKG" On/Off switch in "data.pkg":  --------
 pkg/generic_advdiff      compiled but not used ( useGAD                   = F )
 pkg/mom_common           compiled   and   used ( momStepping              = T )
 pkg/mom_vecinv           compiled but not used ( +vectorInvariantMomentum = F )
 pkg/mom_fluxform         compiled   and   used ( & not vectorInvariantMom = T )
 pkg/monitor              compiled   and   used ( monitorFreq > 0.         = T )
 pkg/debug                compiled but not used ( debugMode                = F )
 pkg/rw                   compiled   and   used
 pkg/mdsio                compiled   and   used
(PID.TID 0000.0001)  PACKAGES_BOOT: End of package Summary
(PID.TID 0000.0001) 
(PID.TID 0000.0001)  DIAGNOSTICS_READPARMS: opening data.diagnostics
(PID.TID 0000.0001)  OPEN_COPY_DATA_FILE: opening file data.diagnostics
(PID.TID 0000.0001) // =======================================================
(PID.TID 0000.0001) // Parameter file "data.diagnostics"
(PID.TID 0000.0001) // =======================================================
(PID.TID 0000.0001) ># Diagnostic Package Choices
(PID.TID 0000.0001) >#--------------------
(PID.TID 0000.0001) >#  dumpAtLast (logical): always write output at the end of simulation (default=F)
(PID.TID 0000.0001) >#  diag_mnc   (logical): write to NetCDF files (default=useMNC)
(PID.TID 0000.0001) >#--for each output-stream:
(PID.TID 0000.0001) >#  fileName(n) : prefix of the output file name (max 80c long) for outp.stream n
(PID.TID 0000.0001) >#  frequency(n):< 0 : write snap-shot output every |frequency| seconds
(PID.TID 0000.0001) >#               > 0 : write time-average output every frequency seconds
(PID.TID 0000.0001) >#  timePhase(n)     : write at time = timePhase + multiple of |frequency|
(PID.TID 0000.0001) >#    averagingFreq  : frequency (in s) for periodic averaging interval
(PID.TID 0000.0001) >#    averagingPhase : phase     (in s) for periodic averaging interval
(PID.TID 0000.0001) >#    repeatCycle    : number of averaging intervals in 1 cycle
(PID.TID 0000.0001) >#  levels(:,n) : list of levels to write to file (Notes: declared as REAL)
(PID.TID 0000.0001) >#                when this entry is missing, select all common levels of this list
(PID.TID 0000.0001) >#  fields(:,n) : list of selected diagnostics fields (8.c) in outp.stream n
(PID.TID 0000.0001) >#                (see "available_diagnostics.log" file for the full list of diags)
(PID.TID 0000.0001) >#  missing_value(n) : missing value for real-type fields in output file "n"
(PID.TID 0000.0001) >#  fileFlags(n)     : specific code (8c string) for output file "n"
(PID.TID 0000.0001) >#--------------------
(PID.TID 0000.0001) > &DIAGNOSTICS_LIST
(PID.TID 0000.0001) ># diag_mnc     = .FALSE.,
(PID.TID 0000.0001) ># useMissingValue=.TRUE.,
(PID.TID 0000.0001) >  xPsi0 = 135.,
(PID.TID 0000.0001) >  yPsi0 =  0.,
(PID.TID 0000.0001) >#--
(PID.TID 0000.0001) >  fields(1:5,3) = 'UVELMASS','VVELMASS',
(PID.TID 0000.0001) >                  'ETAN    ','ETANSQ  ','DETADT2 ',
(PID.TID 0000.0001) >   fileName(3) = 'dynDiag',
(PID.TID 0000.0001) >  frequency(3) = -21600.,
(PID.TID 0000.0001) >  timePhase(3) = -1800.,
(PID.TID 0000.0001) >
(PID.TID 0000.0001) >  fields(1:3,2) = 'WVELMASS','PhiVEL  ','PsiVEL  ',
(PID.TID 0000.0001) >   fileName(2) = 'dyn_Aux',
(PID.TID 0000.0001) ># fileFlags(2) = 'D       ',
(PID.TID 0000.0001) >  frequency(2) = -21600.,
(PID.TID 0000.0001) >  timePhase(2) = -1800.,
(PID.TID 0000.0001) > /
(PID.TID 0000.0001) >
(PID.TID 0000.0001) >#--------------------
(PID.TID 0000.0001) ># Parameter for Diagnostics of per level statistics:
(PID.TID 0000.0001) >#--------------------
(PID.TID 0000.0001) >#  diagSt_mnc (logical): write stat-diags to NetCDF files (default=diag_mnc)
(PID.TID 0000.0001) >#  diagSt_regMaskFile : file containing the region-mask to read-in
(PID.TID 0000.0001) >#  nSetRegMskFile   : number of region-mask sets within the region-mask file
(PID.TID 0000.0001) >#  set_regMask(i)   : region-mask set-index that identifies the region "i"
(PID.TID 0000.0001) >#  val_regMask(i)   : region "i" identifier value in the region mask
(PID.TID 0000.0001) >#--for each output-stream:
(PID.TID 0000.0001) >#  stat_fName(n) : prefix of the output file name (max 80c long) for outp.stream n
(PID.TID 0000.0001) >#  stat_freq(n):< 0 : write snap-shot output every |stat_freq| seconds
(PID.TID 0000.0001) >#               > 0 : write time-average output every stat_freq seconds
(PID.TID 0000.0001) >#  stat_phase(n)    : write at time = stat_phase + multiple of |stat_freq|
(PID.TID 0000.0001) >#  stat_region(:,n) : list of "regions" (default: 1 region only=global)
(PID.TID 0000.0001) >#  stat_fields(:,n) : list of selected diagnostics fields (8.c) in outp.stream n
(PID.TID 0000.0001) >#                (see "available_diagnostics.log" file for the full list of diags)
(PID.TID 0000.0001) >#--------------------
(PID.TID 0000.0001) > &DIAG_STATIS_PARMS
(PID.TID 0000.0001) ># diagSt_mnc    = .TRUE.,
(PID.TID 0000.0001) > stat_fields(1:5,1)  = 'ETAN    ','ETANSQ  ','DETADT2 ',
(PID.TID 0000.0001) >                       'UVEL    ','VVEL    ',
(PID.TID 0000.0001) >  stat_fName(1) = 'dynStDiag',
(PID.TID 0000.0001) >   stat_freq(1) = -7200.,
(PID.TID 0000.0001) >  stat_phase(1) = 0.,
(PID.TID 0000.0001) > /
(PID.TID 0000.0001) >
(PID.TID 0000.0001) 
(PID.TID 0000.0001) S/R DIAGNOSTICS_READPARMS, read namelist "diagnostics_list": start
(PID.TID 0000.0001) S/R DIAGNOSTICS_READPARMS, read namelist "diagnostics_list": OK
(PID.TID 0000.0001) S/R DIAGNOSTICS_READPARMS, read namelist "DIAG_STATIS_PARMS": start
(PID.TID 0000.0001) S/R DIAGNOSTICS_READPARMS, read namelist "DIAG_STATIS_PARMS": OK
(PID.TID 0000.0001) -----------------------------------------------------
(PID.TID 0000.0001)  DIAGNOSTICS_READPARMS: global parameter summary:
(PID.TID 0000.0001)  diag_dBugLevel = /* level of printed debug messages */
(PID.TID 0000.0001)                       2
(PID.TID 0000.0001)     ;
(PID.TID 0000.0001)  dumpAtLast = /* always write time-ave diags at the end */
(PID.TID 0000.0001)                   F
(PID.TID 0000.0001)     ;
(PID.TID 0000.0001)  diag_mnc =   /* write NetCDF output files */
(PID.TID 0000.0001)                   F
(PID.TID 0000.0001)     ;
(PID.TID 0000.0001)  useMissingValue = /* put MissingValue where mask = 0 */
(PID.TID 0000.0001)                   F
(PID.TID 0000.0001)     ;
(PID.TID 0000.0001)  diagCG_maxIters = /* max number of iters in diag_cg2d */
(PID.TID 0000.0001)                    5000
(PID.TID 0000.0001)     ;
(PID.TID 0000.0001)  diagCG_resTarget = /* residual target for diag_cg2d */
(PID.TID 0000.0001)                 1.000000000000000E-10
(PID.TID 0000.0001)     ;
(PID.TID 0000.0001)  diagCG_pcOffDFac = /* preconditioner off-diagonal factor */
(PID.TID 0000.0001)                 9.611687812379854E-01
(PID.TID 0000.0001)     ;
(PID.TID 0000.0001) -----------------------------------------------------
(PID.TID 0000.0001)  DIAGNOSTICS_READPARMS: active diagnostics summary:
(PID.TID 0000.0001) -----------------------------------------------------
(PID.TID 0000.0001) Creating Output Stream: dyn_Aux
(PID.TID 0000.0001) Output Frequency:     -21600.000000 ; Phase:       -1800.000000
(PID.TID 0000.0001)  Averaging Freq.:          0.000000 , Phase:           0.000000 , Cycle:   1
(PID.TID 0000.0001)  missing value: -9.990000000000E+02
(PID.TID 0000.0001)  Levels:    will be set later
(PID.TID 0000.0001)  Fields:    WVELMASS PhiVEL   PsiVEL
(PID.TID 0000.0001) Creating Output Stream: dynDiag
(PID.TID 0000.0001) Output Frequency:     -21600.000000 ; Phase:       -1800.000000
(PID.TID 0000.0001)  Averaging Freq.:          0.000000 , Phase:           0.000000 , Cycle:   1
(PID.TID 0000.0001)  missing value: -9.990000000000E+02
(PID.TID 0000.0001)  Levels:    will be set later
(PID.TID 0000.0001)  Fields:    UVELMASS VVELMASS ETAN     ETANSQ   DETADT2
(PID.TID 0000.0001) -----------------------------------------------------
(PID.TID 0000.0001)  DIAGNOSTICS_READPARMS: statistics diags. summary:
(PID.TID 0000.0001) Creating Stats. Output Stream: dynStDiag
(PID.TID 0000.0001) Output Frequency:      -7200.000000 ; Phase:           0.000000
(PID.TID 0000.0001)  Regions:   0
(PID.TID 0000.0001)  Fields:    ETAN     ETANSQ   DETADT2  UVEL     VVEL
(PID.TID 0000.0001) -----------------------------------------------------
(PID.TID 0000.0001) 
(PID.TID 0000.0001) SET_PARMS: done
(PID.TID 0000.0001) Enter INI_VERTICAL_GRID: setInterFDr=    T ; setCenterDr=    F
(PID.TID 0000.0001) %MON XC_max                       =   3.5987500000000E+02
(PID.TID 0000.0001) %MON XC_min                       =   1.2500000000000E-01
(PID.TID 0000.0001) %MON XC_mean                      =   1.8000000000000E+02
(PID.TID 0000.0001) %MON XC_sd                        =   1.0392302339552E+02
(PID.TID 0000.0001) %MON XG_max                       =   3.5975000000000E+02
(PID.TID 0000.0001) %MON XG_min                       =   0.0000000000000E+00
(PID.TID 0000.0001) %MON XG_mean                      =   1.7987500000000E+02
(PID.TID 0000.0001) %MON XG_sd                        =   1.0392302339552E+02
(PID.TID 0000.0001) %MON DXC_max                      =   2.7798665505088E+04
(PID.TID 0000.0001) %MON DXC_min                      =   6.0647376310612E+01
(PID.TID 0000.0001) %MON DXC_mean                     =   1.7697236260984E+04
(PID.TID 0000.0001) %MON DXC_sd                       =   8.5552656128781E+03
(PID.TID 0000.0001) %MON DXF_max                      =   2.7798665505088E+04
(PID.TID 0000.0001) %MON DXF_min                      =   6.0647376310612E+01
(PID.TID 0000.0001) %MON DXF_mean                     =   1.7697236260984E+04
(PID.TID 0000.0001) %MON DXF_sd                       =   8.5552656128781E+03
(PID.TID 0000.0001) %MON DXG_max                      =   2.7798731661140E+04
(PID.TID 0000.0001) %MON DXG_min                      =   0.0000000000000E+00
(PID.TID 0000.0001) %MON DXG_mean                     =   1.7697194144702E+04
(PID.TID 0000.0001) %MON DXG_sd                       =   8.5553527331570E+03
(PID.TID 0000.0001) %MON DXV_max                      =   2.7798731661140E+04
(PID.TID 0000.0001) %MON DXV_min                      =   0.0000000000000E+00
(PID.TID 0000.0001) %MON DXV_mean                     =   1.7697194144702E+04
(PID.TID 0000.0001) %MON DXV_sd                       =   8.5553527331570E+03
(PID.TID 0000.0001) %MON YC_max                       =   8.9875000000000E+01
(PID.TID 0000.0001) %MON YC_min                       =  -8.9875000000000E+01
(PID.TID 0000.0001) %MON YC_mean                      =   0.0000000000000E+00
(PID.TID 0000.0001) %MON YC_sd                        =   5.1961474109831E+01
(PID.TID 0000.0001) %MON YG_max                       =   8.9750000000000E+01
(PID.TID 0000.0001) %MON YG_min                       =  -9.0000000000000E+01
(PID.TID 0000.0001) %MON YG_mean                      =  -1.2500000000000E-01
(PID.TID 0000.0001) %MON YG_sd                        =   5.1961474109831E+01
(PID.TID 0000.0001) %MON DYC_max                      =   2.7798731661140E+04
(PID.TID 0000.0001) %MON DYC_min                      =   2.7798731661140E+04
(PID.TID 0000.0001) %MON DYC_mean                     =   2.7798731661186E+04
(PID.TID 0000.0001) %MON DYC_sd                       =   4.6802597353235E-08
(PID.TID 0000.0001) %MON DYF_max                      =   2.7798731661140E+04
(PID.TID 0000.0001) %MON DYF_min                      =   2.7798731661140E+04
(PID.TID 0000.0001) %MON DYF_mean                     =   2.7798731661186E+04
(PID.TID 0000.0001) %MON DYF_sd                       =   4.6802597353235E-08
(PID.TID 0000.0001) %MON DYG_max                      =   2.7798731661140E+04
(PID.TID 0000.0001) %MON DYG_min                      =   2.7798731661140E+04
(PID.TID 0000.0001) %MON DYG_mean                     =   2.7798731661186E+04
(PID.TID 0000.0001) %MON DYG_sd                       =   4.6802597353235E-08
(PID.TID 0000.0001) %MON DYU_max                      =   2.7798731661140E+04
(PID.TID 0000.0001) %MON DYU_min                      =   2.7798731661140E+04
(PID.TID 0000.0001) %MON DYU_mean                     =   2.7798731661186E+04
(PID.TID 0000.0001) %MON DYU_sd                       =   4.6802597353235E-08
(PID.TID 0000.0001) %MON RA_max                       =   7.7276702989699E+08
(PID.TID 0000.0001) %MON RA_min                       =   1.6859188026131E+06
(PID.TID 0000.0001) %MON RA_mean                      =   4.9196033170312E+08
(PID.TID 0000.0001) %MON RA_sd                        =   2.3782534440125E+08
(PID.TID 0000.0001) %MON RAW_max                      =   7.7276702989699E+08
(PID.TID 0000.0001) %MON RAW_min                      =   1.6859188026131E+06
(PID.TID 0000.0001) %MON RAW_mean                     =   4.9196033170312E+08
(PID.TID 0000.0001) %MON RAW_sd                       =   2.3782534440125E+08
(PID.TID 0000.0001) %MON RAS_max                      =   7.7276886894985E+08
(PID.TID 0000.0001) %MON RAS_min                      =   0.0000000000000E+00
(PID.TID 0000.0001) %MON RAS_mean                     =   4.9195916092479E+08
(PID.TID 0000.0001) %MON RAS_sd                       =   2.3782776623264E+08
(PID.TID 0000.0001) %MON RAZ_max                      =   7.7276886894985E+08
(PID.TID 0000.0001) %MON RAZ_min                      =   0.0000000000000E+00
(PID.TID 0000.0001) %MON RAZ_mean                     =   4.9195916092479E+08
(PID.TID 0000.0001) %MON RAZ_sd                       =   2.3782776623264E+08
(PID.TID 0000.0001) %MON AngleCS_max                  =   1.0000000000000E+00
(PID.TID 0000.0001) %MON AngleCS_min                  =   1.0000000000000E+00
(PID.TID 0000.0001) %MON AngleCS_mean                 =   1.0000000000000E+00
(PID.TID 0000.0001) %MON AngleCS_sd                   =   0.0000000000000E+00
(PID.TID 0000.0001) %MON AngleSN_max                  =   0.0000000000000E+00
(PID.TID 0000.0001) %MON AngleSN_min                  =   0.0000000000000E+00
(PID.TID 0000.0001) %MON AngleSN_mean                 =   0.0000000000000E+00
(PID.TID 0000.0001) %MON AngleSN_sd                   =   0.0000000000000E+00
(PID.TID 0000.0001)  MDS_READ_FIELD: opening global file: bathymetry.bin
(PID.TID 0000.0001) // =======================================================
(PID.TID 0000.0001) // Field Model R_low (ini_masks_etc)
(PID.TID 0000.0001) // CMIN =         -6.066000000000000E+03
(PID.TID 0000.0001) // CMAX =         -9.999999999999999E-01
(PID.TID 0000.0001) // CINT =          2.246296296296296E+02
(PID.TID 0000.0001) // SYMBOLS (CMIN->CMAX): -abcdefghijklmnopqrstuvwxyz+
(PID.TID 0000.0001) //                  0.0: .
(PID.TID 0000.0001) // RANGE I (Lo:Hi:Step):(    -1:   362:     1)
(PID.TID 0000.0001) // RANGE J (Lo:Hi:Step):(   362:    -1:    -1)
(PID.TID 0000.0001) // RANGE K (Lo:Hi:Step):(   1:   1:   1)
(PID.TID 0000.0001) // =======================================================
(PID.TID 0000.0001) K =   1
(PID.TID 0000.0001) //                I=8       I=18      I=28      I=38      I=48      I=58      I=68      I=78      I=88      I=98      I=108     I=118     I=128     I=138     I=148     I=158     I=168     I=178     I=188     I=198     I=208     I=218     I=228     I=238     I=248     I=258     I=268     I=278     I=288     I=298     I=308     I=318     I=328     I=338     I=348     I=358
(PID.TID 0000.0001) // |--J--|101234567|901234567|901234567|901234567|901234567|901234567|901234567|901234567|901234567|901234567|901234567|901234567|901234567|901234567|901234567|901234567|901234567|901234567|901234567|901234567|901234567|901234567|901234567|901234567|901234567|901234567|901234567|901234567|901234567|901234567|901234567|901234567|901234567|901234567|901234567|901234567|9012
(PID.TID 0000.0001) //    362 eeeeffffffggggghhhhiiiikklln.snnnoprvy+........................................................................................................................................yvtrpnllkkjjiiihhggffffffeeeddddeededeeeeeeeeffhginigfffffgggggggggggffffhihigiiggiikjijjkikkklkomnkkjijjiiijijiiiiiimq++tqpoliihhhhgggffffffffffffffgggggggghhgggggggggggggggggggggggghjlhii
(PID.TID 0000.0001) //    361 eeeffffffgggggghhiihiiijmmnpyqnoooqsvz++......................................................................................................................................zwrqonmlkkjiiiihhggfffffffefedddeeeddeeeeeeeeeefmhlrhgffffggggggfgggggfffhgghhiihggkkiiijkikjkntmnnkmkikkkijikiiiiiihikousppoonjiihhhggfffffffffffffffffgggggghhhgggggggggggggggggggggggillihg
(PID.TID 0000.0001) //    360 eeeffffgfhhggghhhhhiiijjlmpoonnoopqswz+......................................................................................................................................zwqonmmlkkjjiihhhggffffffffeeeddeeeeeeeeeeefeffffkinigffffggggggggggggffgfhggiiiigigfiiijjijkiklqlponmmikjikkiijjiiiiiilprrrponkhhihhgggffffffffffffffffffffggghigggggggggggggggggggggghgilmkkk
(PID.TID 0000.0001) //    359 eefifgggiihhggghhhhiijjjkmommmnooqruy++.....................................................................................................................................+xrpnmmllkjjiihhgggfffffffeeeeeddeeeeeeeefeefffefhlgkiiffffggggggggfggggfggggggiiggimjgjikfjkilipqlnnnmkikiljkijjiiiiiijkpruppnliggggggggfffffffffffffffffffffffggfgggffgggggggggggggggggiknmmml
(PID.TID 0000.0001) //    358 ffffgggggggggghihhjiijjkkmrnmmnopqruz++....................................................................................................................................+ytponmmlkkjiihgggfffffffeeeeeddddeeeeeddeeeefffeffgfffffffggffffffffggggfgggggggggiiegiijhikikjlmlpmrlpkjkmkkkkijiiiiiiimpyrqpomkgggggggfffffffffffffffffffffffffffffffghgfffgggggggggfgghlppnml
(PID.TID 0000.0001) //    357 fffggggggfgiggihhiiijjjkllllmmnopqsw++....................................................................................................................................+yvqonmmlkkjjihhggfffffffeeeeeeedddeeeedddeeffffffffefghffggfffffffffffggffffgggggggffhgihgiiikkklknrnnopnlknkkiiikijiiiiinrvspponiffgfffffffffffffffffgggggfffffffffffffkgffffffffffffffggknppnmk
(PID.TID 0000.0001) //    356 ffggghggggiighhhhiiiijjlllllmmnooqsx++...................................................................................................................................+zvrponmllkjjihhggffffffffeeeeeeeddeeeeedddeehffffggggfgggggggggggffffffgfffffffggggffgggghikkijjkimoopkpnlmnlkiiiiigijiiijkprqponlhffffffffffffffffffffggggfffffffffffffffffffffffffffffgggnopnmlj
(PID.TID 0000.0001) //    355 fggghmghghhhggghhiijjjklxnlllmmnopruz++..................................................................................................................................zwrponmmlkkjjihhggfffffffeeeeeeeedddeeeeddeeffffffggiggggggggghggggggggghggfffffffffgfigghiiiiiikikllkjnnllmnjjkiiiihiiiiiiilppponkffffffffffffffffffffffgfffffffffffffffffffffffffffffffgggkoolkig
(PID.TID 0000.0001) //    354 fgggggghhhhhhggghhijkjjkpkllllmmnoptx+++................................................................................................................................+wsqonmmlkkjjihhgggffffffeeeeeeeeddddeeedddeeffghfggggggggggggggggggggghghggfffffffgfggggghiikjikijkkkipplrnnkiijiiikgiiiiiikppronngffffffffffffffffffffffffffffffffffffffhffffffffffffffggggkookggg
(PID.TID 0000.0001) //    353 ffgfffgijjihhhggghiiiijjjklnlllmmnoqtz+................................................................................................................................zwsqonmmllkjjjihhgggffffffeeeeeeeeddddedddeeddefgghggghgggggggggggggggggghgggffffffgfggigghihkkikiiijkilpoqoooijjiijiiiiiihhimqppnnligffffffffffffffffffffffffffffffgfffffffffffffffffffgggggglnnhjgf
(PID.TID 0000.0001) //    352 fggffgimiihhihhggghhhiijjjjnlllllmnqtzz+.............................................................................................................................++ytqonmmllkkjjiihhgggffffffeeeeeeeeddddedeeeeeeegfhggggghhhgggggggghhhgghhggigggffffgfghggiiigiiiiiiliiknnnplljkljjkjhfiikggghkpqnnnnigffffffffffffffffffffffffffffffggigffffffffffffffffgiggggkmigigg
(PID.TID 0000.0001) //    351 ghggggiihhhmihhgggghhhijiijjjjkkklnpuy+++............................................................................................................................+ztrponmllkkkjjiihhggffffffeeeeeeeeeedddddeeefeeeefhhghiiiiihgggghhhhigghikhgiiigggffffgigiiigghhhiikkijknnpmkikkkkhkigkijgggghjnponnmgffffffeeeeeeeefffffffffffffffffgiifffgffffffffffffgggggggikkmkkj
(PID.TID 0000.0001) //    350 ggffgghhhghhghgggggghhjhhiiiiijjkklotwz+++.........................................................................................................................+zzytponmmllkkjjjiihhgffffffeeeeeeeeeeeeeeddeeeffeeniiihhhhkkjihhhhhhhhhhhhhijghgggggffffgihhhgghhhiijmiikklmnkimnkkijihhiigihgggjoonnnlffffffeeeeeeeeeeeeeeeefffffeeeefgkliggfffffffffffffggggggginnlllk
(PID.TID 0000.0001) //    349 ggggghgimhghjhhgffggghhhghhhhiiijiinstwz+++.......................................................................................................................++zzvronnmllkkkjjiihhggffffffeeeeeeeeeeeeeeeeeeeefffjikiiiiimlkjihhhhhihihhhhhmhghgggggffggihhhhhhijhikkjikllpkioomkjiljggigiikgghinmlmmlgfeefeeeeeeeeeeeeeeeeeeeeeeeeeeeginnhgffffffffffffffggggghjlmlllk
(PID.TID 0000.0001) //    348 ghhgghhmhgghgfgfffffgggggghhhhhiihinpsuwz+++......................................................................................................................+zyxuqonmmllkkjjiihhhggffffffefeeeegeeeeeeeeeeeeefgffillkiiqnnnkiiihhhhimhihhhnlmliihgggghiihhhiiiihijmijiklolklrmkjikijgkiiijihhhikkjkkhgeeeeeeeeeeeeeeeeeeeeeeeeeeeeeedgilkggffffffffffffffgggggikklkjii
(PID.TID 0000.0001) //    347 ghgihhhhgfgffffgfeeefffffggghhhhhhijnqstwz+++.....................................................................................................................zyxxvronmmlkkkjjihhhggfffffffeeeeeeeeeeeeeeeeeeeegghfioonipsnnmlljjihhhhihhhhhnniiljihhhhiihhiiiikihjjijkkkiklpllkjijkjhkjhiiiiiijkiijjieedeeeeeeeeeeeeeeeeeeeeeeeeddddeegkkigffffffffffffffffgggginnlkjii
(PID.TID 0000.0001) //    346 gggggghgffffefeifeeeefffffggghhhhhiiknprtwz+++...................................................................................................................zyxwwtqonmlkkkjjiihhggfffffffffeefgeeeeeeeeeeeeeegggjinnnnnrrxxvvrmkjihhiiiiihhminkmliiihhihhiiiijjijijikkkilnnkmljiijjmgkiiiiiiijklmlkmoeddeeeeeeeeeeeeeeeeeeeeeeeeddddeegjkgggffffeffffffffffffggjnnllkkj
(PID.TID 0000.0001) //    345 gggggfffeffeeeeeeeeegfeefffggghhhiiijjmoqrwz+++..................................................................................................................zxwwvtqonmlkkjjiihhgggffffffffeeeffefeeeeeeeeeeeeggiijnmnnszz+++zxrmkjiiikiiiijijkklkkjiiiihiiiiiiiijkiijiikkkinlkiikkkjiiiijkiiikmnonmnphedeeeeeeeeeeeeeeeeeeeeeeeedddeeeekliggfffeeeffffffffffffgjnopnnlk
(PID.TID 0000.0001) //    344 gfffffffeefeddddddemmfeefffggghhhiiijjklnorwz+++................................................................................................................zywwvutqonmlkjjiihhgggffffffffffeeeeeegeeeeeeeeeefgggilnnnqzz+++++zurnkjiiimiiiiiikklkkkjiihiiiiiiiiiiiiiiiikkimlkkinokkjjiiiijiijlorrpooneeeeeeeeeeeeeeeeeeeeeeefffeeeeeeegkkiggfeeeeeeeeeeeeeeeefginonnkih
(PID.TID 0000.0001) //    343 ffgffffffeeeddhejeeiieeefffggghhhiiijjkklmorvz++................................................................................................................+xxwutsqonllkjiihhhgggfffffffffffeeeeeeeeeeeeeefeffggijloqyz+++++++yunmkjiiiiiiijjolkkkkjjiiiiiiiiiiiiiiiiiijinllmionpnjkkkiiiiijkmptrqpojgefeeeeeeeeeeeeeeeeeeeeffedeeeeegkkkigeeeeeeeeeeeeeeedeeeghkmkggfg
(PID.TID 0000.0001) //    342 ggggfffffeedddegldddddeeeffffghhhiiijkkllmnprux++..............................................................................................................+yywvtssqomllkjiihhhggggffffffffffeeeeeeeeeeeeeeeefffhiinrszz++++++++xtpoljiiiiiiiikkjjjkkkiiiiiiiiiigiiiikiiikmkkjmrqnnkllkiiiijknrxtrqpnhfegeeeeeeeeeeeeeeeeeeeeeeedeeeeefgiiiedeeeeeeeeeeeeedddddeikkigeee
(PID.TID 0000.0001) //    341 hihgffffieeddehieideeeeeeeffffghhiiijkklmnnprstz++.............................................................................................................zx+wtsrqponllkjiihhhggggggfffffffffeeeeeeeeeeeeeeeeffhigxnnprwzzz+++++wrrokjiiiiiiiiiijjkkkiiiiiiiikgikiiiikiikmiinolmnlnkkjkiiijlprzvsqpneeeeeeeeeeeeeeeeeeeeeeeeeeeeeeeeeeghhfddeeeeeeeeeeeeddddddegkkifeee
(PID.TID 0000.0001) //    340 hjigffeefdchieeddddeefeeeeffffghhiijjkklmnoprsuyz++...........................................................................................................zxzxvtsrponnllkjiiihhhgggggggfffffffeeeeeffeeeefeeeffghglxnnmooprxzzz+++zsqnjiiiiiiiiiiijkkjiiiiiiiggiiiiikkiikjjinplnionkkkkiiijlpvvwwsqomeefeddeeeeeeeeeeeeeeeeedddeeeeeedegggedddeeeeeeeeeeeddeeddefikgifee
(PID.TID 0000.0001) //    339 jkjgfeeedccddddccddddeeefffffgghhiiijjklmnoprsuxz++...........................................................................................................zxzyutrrponmlkkjjiihhhgggggggfffffffeeeeefgffeeefeffgghguzpnllllmpruw+++ztsonjiiiiiiiiiijkkiiiiiiihgiiiikijiijjkikmlmmjnnlkkiijjkqrzwxrppojeffdddeeeeeeeeeeeddeeeedddeeeeeeeeeeeeeeeeeeeeeeeeeeeeeeddegihkkige
(PID.TID 0000.0001) //    338 kkigefedcbbccdeecddddeeeffffggghhhiijjklmnnppsvyz++..........................................................................................................++zxwusrqoonmlkjjjiihhhhgggggggffffgfffeeegiifeeeeefggffjxzxrkkkllronnzzzvvurpnljiiiiiiiijjjiiiiiiiiikjiiiiikiikilkknlknonikijjkkmruxzzzrommeeedddeeeeeeeeedddddeeedddeeeeeeeedeedeeeeeeeeeeeeeeeeeeddehknonkif
(PID.TID 0000.0001) //    337 hhggigfebbbbcfgfddddddeeffffggghhhiijjkklmnoqsuwy++..+.......................................................................................................++zxuusrrpommlkkjjiihhhhggggggggfffgifffeeikiffeeeeffffgtyvmkkkkknyolnxtqrwwttrnjiiiiiiiiiiiiiiiiiiijiiiiiiijkkjikilpiookikikkkllprz+++yvnmkedeedeeeeeeeeeeddddeeeeeddeeeeeeeeedddddeeedddeeeeeeeeeeddeimppmkii
(PID.TID 0000.0001) //    336 hghlihfdbbbbcchhddddddeeeffffggghhiijjkkllnoqsvyz++..........................................................................................................++.yutssrpnmmlkkjjiiihhhhggggggggfffgfffffikjgfeffffefgiv+nkkkqkkmqmlozqoruvvvtoljjiiiiiiiiiiiiiiiiiiiiiiijiikiikippjnolikkijkkkloy++++zromfedeeeeeeeeeeeeeedbdeeeeeeeeeeeeeedddddddddddddeeeeeeeeeeddeglpplkki
(PID.TID 0000.0001) //    335 hirrifeccbbbbcefddddddeeeefffggghhhiijjkkklnqsvxz+++.........................................................................................................+++zvttsqponmlkkjjiiihhhhhggggggggfffffffikmigffffffffensrkjjkklkllkkpzppwvuvvtqnkjjiiiiiiiiiiiiiiiiiiiiiikkliikikiinnpkikkjkkkklrz++++wpnqeedeeeeeeeeeeeeeedbdeeeeeeeeeeeeddddddddddddddddeeeeeddddddgjnpnllkh
(PID.TID 0000.0001) //    334 qnigfedcbbbbbbccdddddddeeeffffgghhhhiijjkkknpsuwxz++...........................................................................................................+ywvutqponmlkkjjiiihhhhhhgggggjgfffffgionmjhffffffghelvkiijjjjjllklppoopvsuutromkjjjiiiiiiiiiiiiiiiiiiiijiiikjjilpnnmilkkjkkkknryzz+zvrnkeddeeeeeeeeeeeeeedddedeeeeeeeeeeedddeeeeeeeeeeedeeeedddddddgmnnmijkg
(PID.TID 0000.0001) //    333 lrgfeddcbbaabbcddddddddeeeffffgghhhhhiijjjjlortwxyz++...........................................................................................................yywutqponmlkkjjiiiihhhhhhgggggggffffironmiiggfffhiiejviiikjjjjkmklnqornnptttrpomfeijjiiiiiiiiiiiikiiiiiiikiiiiinnnnllnkijkkknrxzwvuwtrmkeddeeeeeeeedddddddddedeeeeeeeeeeeeeeeeeeeeeeeeeeeeeeedddccbfgnnnigie
(PID.TID 0000.0001) //    332 gfeeddccbaaaabbcdddddddeeeefffgggghhhiiijjjjorsuwxz++...........................................................................................................zyxutqponmlkkjjiiiihhhhhhhggggggffggiiinnkiihfffgiiegvjiijjjjjjjkktunzpmnpttsrromlgjjjjiiiiiiiiiiiiiiiijjjikiklmnllnnnkijjkknryzwtuvtnlleeeeeeeeeedddddeeeddddeeeeeeeeeeeeeeeeeeeeeeeeeeeeeeedddccbcinnngfeb
(PID.TID 0000.0001) //    331 ddeedddcbaaaabbcccccdddeeeeffffggghhhhiiiijjoprtvwyz++.........................................................................................................++zxusqoommlkkjjiiiiihhhhhhhggghhghggghiknlkkhggffiheerjiilijjjjjjklonuynmnssutsqpnlkkkkkjjjjjjjiiiiiiiiiikjikklnimpnpniiijklnvzwxtuwtmkjegeeeeeeeeddddddeeddddeeeeeeeeeeeeeeeeeeeeefgffeeeeeedddcbcdgnnkgecb
(PID.TID 0000.0001) //    330 ddeeehmcbaaaabbbccccddddeeeffffgggghhhhiiiijnoqsuvwwz+.........................................................................................................+++wtrponmmlkjjjiiiiihhhhhhhhhhhhhggffgijmijkiigffhgfenoiiiiiikjjkklnnmvnmmoqtutsrqnmkkkkkkkkkkjiiiiiiiiiiikkklninponnjkiikklpztvvttrrjifggeeeeeeeeeedddddddddeeddddddeeeeeeeeeeeeeefeggfeeeeeedddedehmoifecb
(PID.TID 0000.0001) //    329 dedddpmbbbaaabbbcccccddddeeeffffgggghhhhhhiimnpqstuux++.........................................................................................................++wtrponmllkkjjiiiiiihhhihhhhiihgggfffghkiiriigffghieiohhhhiikkjkrlnnkmmlmnostuuuspnmmllkklkkkjiiiiiiiiiikikmkilnlmnijiiijkmoqtvutstnjiegeeeeeeeeeeeddddddddeeedddddddddeeeeeeeeeeeefggfeeedeeeeeeefhnoifecc
(PID.TID 0000.0001) //    328 eddciecbebbbbbbcccccccdddeeefffffgggghhhhhijkooqrrstwz+........................................................................................................++xvsqponmmlkkjjiiiiiihhhhhkkjkkigggggffggghiiigffhihegnjhhhiijkjjkmllkklllmnptvuuwtrpommlllllkkiiiiiiiiiiikkjilmkpnjkkiiiklnqvsvrsrnmjiegdeeeeeeeeeedddddddeeeeddddddddeeeeeeeeeeeeggggeeddddeeeeeefknnifecb
(PID.TID 0000.0001) //    327 edcdiebelbbbbbccccccccddddeeefffffgggghhhhijkmopqrssvy++.......................................................................................................+zwusqoonmmlkkkjiiiiiiihhhhimnpskggggghifffgijigghijiffrniiiiiijjkkllkkkkklmnoqvuvtyvrqpnnmmmlkkjiiiiiiiijjkiikliopnkkkjijknqrussrqpnljggeeeeeeeeeeedddddddeeeeeeddddeeeeeeeeeeeeeefggggedccddeeeeeegnnnifdbb
(PID.TID 0000.0001) //    326 ccecbbbbbbbbbbbccccdcccdddeeeefffffgggghhhijkmooprrtvy++.......................................................................................................+zutrpoonmmkjjjjjiiiiiiiihhiikrwtiggggigfeefgiimknpiifeenpiiiiiiillmmlkmkkllnoprtvwzzsqppppnmlkkjiiiiiijijkiikkknpiikkjiiklrsrssqppomljggeeeeeeeeeeeddddddeeeeeeeeddeeeeegeeeeeeeeeegggebcbbbdeeeeeegnnkgedbb
(PID.TID 0000.0001) //    325 ccdbbbbaaabbbbbbbccccccddddeeeefffffgggghhiijmnoqqsuwy..........................................................................................................ztqpponnmmlkkkjjjjiiiiiiihiijqtqiggggggfefgikmtnopiiifeeiijiiiiilmlllkjkjklnopstvwzztrqqqpomllkkjjiiikiikijlllnmbmklkijiklrtsrqppnnmkiggeeeeeeeeeeeddddeeeeeeeeeeeeedeeeeeeeeeeeeefgiececbbdeeeeedegknkgecbc
(PID.TID 0000.0001) //    324 bccbbbbbbbbbbbbbbcccccccddddeeeefffffggghhhijnnpqqruwz..........................................................................................................zvqoonmnnnlllkkjjjjiiiiiiiiiiiohhggggggffgijmrxokkiigijegmiiihhijmllkjjjjkkmoprtuwzyvrqqqqonnlkkjikkjiiiiikilmoenkkkikiiknrssrqpnmmlkggkfeeeeeeeeeeeeeeeeeeeeeeeeeedddeeeeeeeeegeefgffeecdeeeeeeeeeglpkgecbc
(PID.TID 0000.0001) //    323 ccbbbbbbaabbbbbbbcccccccdddddeeeeefffgggghhijnoprrstw++.........................................................................................................+vqpommnonnmllkkjjjjjjiiiilztiihhhhgggggfhjlmq+vnriiiiigggiiiiikjjkkljjjjjklnoptvvyzvtrrrrpppnllkkiijjiiikikllkmlllkijijknppppppnmlkifgeeeeeeeeeeeeeeeeeeeeeeeeddddddddeiegfeeeeeeefgefaceeeeeefffegmpkgecbc
(PID.TID 0000.0001) //    322 cbbbbbbbbbbbbbbbcccccccccddddeeeefffffggghhijnoprrrtwz+..........................................................................................................xtrqmnoponmmllkkjjjjjjiiiinphhiwihggghgfhknptvwokiiiiggidiiiiikjklnljiiijklmooqvyywvvwzwtrqrpnmkijijiikkikkipllnkkiikiikkmnpppqomlkjlgeeeeedeeeeeeeeeeeeeeeeedddddddddefiedeeeeegegehdcdeeeeeeeeeefjmkgecbb
(PID.TID 0000.0001) //    321 cbcdbbbbbbbbbbbcccccccccccddddeefffffffgghhijkooqrrsuy+..........................................................................................................zwusonoponnmmllkkkjjjjjiiiikijinihhggijfknxvxvvniihhgffghmiiijijjjrliiiiijklopptzzyzzzzzzvrrpnkjiiiilkijkjkqinnnikiliijijklnoqtomljingeeeedddeeeeeeeeeeeddddddddddeeegffedddeeeeeeghfcedeeeeeefeddgjkjgecbb
(PID.TID 0000.0001) //    320 bbccbbbbbbbbbbbccccccccccccddddeeeeffffgghhiijnorrrstwz+..........................................................................................................zzvrooqponnmllkkkkkjjjjiiiiiiiimhhhijjhnqrvrzslihgggffghgiiiiiiiknrijiiijklnoppwz+++++++zzrpljiiikkjikkjipgknnimikjiiijklkkmosolkjiggeeeccddeeeeeeeeedddddddddddeedeedddddeeeeeefhheceeeeeeeeedddfhkigecbb
(PID.TID 0000.0001) //    319 bbbbbbbbbbbbbbbccccccccccccddddeeeeffffggghhiikpprsstwy+............................................................................................................ztqorqoonmllllkkkkjjjjjiijmijihhhiliinpqrnoliihgggfffgghiiiiiiijqojiiijjkmnnnqy++++++++zwrpkkkjiijkiinojppnlmkikkiiijinnmnnpnkiihgeeeeccddeeeeeddddddddddddddddddddddddeeeedddeiedeegeeeeeeeedegkkigdcba
(PID.TID 0000.0001) //    318 bcbbbbbbbbbbbbbbcccccccccccddddeeeeefffgighiinloprsstvwz+...........................................................................................................zvroqqponmmmlllkkkjjjjjjkpiihiiiiklmiknonkiiiiggggfffffggiiijiiijmihiiijjkmmmpwz+++++++zwsrnlkjikjiimlmomlnlijkkijkkjjikklnpmjiifgdeeeccddeeedddddddddddddddddddddddeeeeeeeddegfeeeeeeeeeeeeedeinmkgecb-
(PID.TID 0000.0001) //    317 ccbbbbbbbbbbbbbbbcccccccccccddddeeeefffgghhjijnlotsutuvxz...........................................................................................................+wrptrponmmmmlllkkkkkkjjjljiiiiijklmknllrkihhhgggffffffgggiiikiiiihhhiiijklmnorz+++++++ztpnlkkkkjijljmnkinmkijkkkjjjiknlonnmkjiifebeeeddddeeeddddddddddddeddddeddddeeeeeeeeeefgeeeeeeeeeeedeeeenrpnidcb-
(PID.TID 0000.0001) //    316 usdbbbbbbbbbbbbbbbbcccdedcccddddeeeefffgghiiikjkmspssuuvz...........................................................................................................+xrstqponmnqolllllllkkkjjjjkjiijjlmnnnrlniihhggfffffffffggiiihhhhhhhhiiiijkmnnpwz+++++zxqnlkkkkkjikimniiklnkkkjllkkijmmnonnlkjigidgeeeedddeedddddddddddddedddddddeeeeeeeeeeefgeeededdedeeedeeegosspidbaa
(PID.TID 0000.0001) //    315 ecbbbbbbbbbbbbbbbbbbccccccccddddeeeeffgghhiiijjklnopstvx+...........................................................................................................+wrsvqponmnyrmlllllllkkkjjkrljjkkmnprnmkiihhgggigfffffffgghhjihhhhhhhiiiijklmnnpzzzz++zvpmlmnkkjikinnkllkkkklkkllkkikjkmmnmlkihficeeeeeeeeeedddddddddddddddddddeeeeeeeeeeeddhfeeddddccbdeeeeeehossnhdb-c
(PID.TID 0000.0001) //    314 bbbbbbbbbbbbbbbbbbbbcccccccccdddeeeeffghhhiijjkklnpqssuy+...........................................................................................................+uprtqoonnp+unmmlllllkkkjkkvkjklmnqrvnljiihhggggffffffffgghiiihhhhhhhhiiiijkllmorzzzz+ztomlmiiikjjknijnnlkkklkikkiiiijklmmlkiiifhbdeeeeeeeeedddcbcdddddddddddddeeeeeeeeeeddekefddddcbbcdeeedeehnsrngcbbd
(PID.TID 0000.0001) //    313 bbbbbbbbccccccbbbbbbcccccccccdddeeeefgghhhijjkkklpqqstvx+...........................................................................................................+tqqrqonmorsxmmrmmlllklljjkkkpnmpruzunljiihhgggffffffgfffgghiihhhhhhhhhiiiijklmnpwzzz+xvokliiiiijkkimnmnnnlkmkkkiihiijkkllkjighgeddeeeeeefedddcbdddddddddddddddeeeeeeeeedegmegedddcbbbceeeedefhorqmgbbcd
(PID.TID 0000.0001) //    312 aabbcccccccccccccccccccccccccdddeeeffgghhiijjkklmpqrstvx+...........................................................................................................ztqxqoomllmntqqztnmmlklrpljkmyxuxz++wrlkjihhhggffffffffffggghhhhhhhhhhhiiiiijkmopvzywrplkiiijiikkkkmjnnnnlnllkkikiiijkkkkjkjhhgfgedeeeeeefedddcddddddddddddddeeeeeeeeeeeggiihiceedbbcieeeeeedfipqplebbbe
(PID.TID 0000.0001) //    311 aaaccccccccccccccccccccccccccdddeeeffghhhiijkkklmpqrstvz............................................................................................................ztqqponmlkloxznprnpnnltyvkkkp+xz++..zrnlkiihhggffggggffffgggihhhhhhhhhhhiiiijkloqwyvqnllkjkjjkjkikklplnnnnnlnkiiiiijjkkkkkiiggggeeeeeeeeeeedddddddddddddddddeeeeeeeeeegfeeigggdeddcdeeeefeeeefipqpmebbbe
(PID.TID 0000.0001) //    310 aaabcccccccccccccccccccccccccdddeeeffghhhhijkkllmpqrtvz.............................................................................................................+tppponmlkloqpmkktzrnlllllklwyxz++..zwtnkjihhggfffffggfffgggihhhhhhhhhhhiiijjkkmszxpolkkkjiikkkkkjknlplnpnllijikijkjkkkkjiigggfeddeeeeeeeeedddecdddddddddddeeeeeeeeeeeeeegifggegeddeeeffffeeefhprplebbdd
(PID.TID 0000.0001) //    309 aabbbccccccccccccccccccccccccddeeefffghhhiiijkllmnpqty..............................................................................................................ztpppnmmlllmnmlkkr.wmlkklllmzxwz++...+vnkjiihhgfffffggffghihhhhhhhhhhhhhhiijjjknrytpnnkkkjjkkkimilklnpnrnonklkmkikjijjjjjiigigeddddeeeeeeeedddddccdddddddddeeggeeeeeeeeegfehiegeeeeefeggggffefiprpicbbce
(PID.TID 0000.0001) //    308 bbbbbbccccccccccccccccccccccdddeeefffgghhijjjkklmnprv...............................................................................................................+tqqonmmlllllllklptrllkklllmprz++.....upmkjihhggffmgggffghihhhhhhhhhiiihhiijjjkpvwtqpmkkjjjjjkljjlnnmonnljjnnikkjjjijjjjijigiedddcbeeeeeeeeeedccccdddddddddeeggfeeeeeeeeefgjghieeeeeggggggggggkqrojcbbcf
(PID.TID 0000.0001) //    307 cbbbbcccccccccccccccccccccccdddeeefffgghhijjkkkllnor................................................................................................................ztqronmmllllllkklklllllllmmnqvz++.....zrnkjiihggfigfgffffghhhhhhhhhijjjhiiijjkltywtrpnkkjjiiiiikllmkllmnlonlkklkjjiiiiiiiiiifdddedceccedeeeeedcbcddddddddddeeggfeeeeeeeeegjhhifedeedfggggijhhhnrrpmebbdf
(PID.TID 0000.0001) //    306 cbbbbcdcccccccccccccccccccccdddeeffffgghhijjkkllmnor................................................................................................................+trspommllljkjjjkkkjklllmmnptz.+......zrnlkjihggffffgffffgghihhhhhhijpkhiiiijklxzzwrppnkkjiijkkkkllklnkhmlllkikkkjijiiiiiiigedeegggebeddcceeddccddddddddeedeeeeeeeeeeeefgjihigeddddeggggikkjiimrrriebcee
(PID.TID 0000.0001) //    305 ccbcccccccccccccccccccccccccdddeeffffgghhijjkklmmnqy................................................................................................................ztqsqonmmllkjjjjjjjkkllmnnoqwz........+tnlkjihggffffmfffggghhhhiihhiijiiiiiiijnz++zronlkkjjkklkkijmllnklllmkjkllkkjjiiiiiigeeeeegfebbedcccddddcdddddddddeeeeeeeeeeeeeefgiiiigggddddeggjkmooljimrpngecdfd
(PID.TID 0000.0001) //    304 ccddccccccccccccccccccccccccdddeeffffgghhijkllmmnor+................................................................................................................+zpqtpnmmlllljjjjjlllllmnoqtz+........+vomkjihgggfffffffggghhhhihhhiiiihhiiijks+++zqmkkkjjklkklnmkkljloooonlklmmlkkjiiiiihgffceegdebdeddcddddddddddccdddeeeeeeeeeeeeeeegggggggfeeghijkmopqpnkjnspkgbcegc
(PID.TID 0000.0001) //    303 ccedccccccccccccccccccccccccdddeeffffgghhijknlmmopr+................................................................................................................+xqoponnmllllkkjjllllmmnoqtx+..........zpnkjiihggfffffffggghiihhhghiiiihhiiiijz++++rqnkkkjkjikkklkjlpqpprnnnnmmmmkkjiiigihggefgeecdeeeedddddddddddcccdddeeeeeeeeeeeeddfeegggeegfghijkmoprrqpnlprpjfbbdgc
(PID.TID 0000.0001) //    302 ccdcdcccccccccccccccccccccccdddeeffffgghiijkllmnopr..................................................................................................................wropoonmllllllkkllmmnnprux++..........zrmkjiihgggffgfffggghihhhgghhiihhiiiiimz+++zzrpkkjiiijkkkkikmlppnplnnnnlmlkkjjiiiiihgeefe-eeeeeeddddddddeeccdddeefeeefeeeeeeedeeegfedefhhghijkmpqrsrqpnprpiebbehc
(PID.TID 0000.0001) //    301 cccccbccccccccccccccccccccccdddeeefffgghiijklmmorsx.................................................................................................................+zpoqonmmlllllmllllmnoqswz+............+rnkjiihgggffgfffgghiihhgggghhhiiiiiijmz+++zrplkjiiiikkkklmmkmpppllrnnljlkkkkkjiihjjefegeeeeeeeeeedddeeebdeddddeeeeeeeeeeeeeeeefgeeedegeefggiilorrrrrpnprpiebbeif
(PID.TID 0000.0001) //    300 dccbbccccccccccccccccccccccccdddeeffggghiijklmoprw+.................................................................................................................+wqoqonmnllllnmlllmnprvzz+..............vnkiiihgggfffffgggghhggggggghhiiiijjjlrz+zxrslkiiiijkiikkkiklpnpmonqnlmkkkkkkiiiijgeghgceeeeeeeeeeeeecddedeeeeeeeeeeeeeeeeeeeeeeeeeeeeeefffggkmorrrqpnpqoidbceig
(PID.TID 0000.0001) //    299 cdbbbccccccccccccccccccccccccdddeeefigghhijllmoqsx..................................................................................................................zvrpqonmnmllmnnonmnprvz++.+.............zojiihhgggffffffgggggggggggghiiiijjjlopxzzxvpnnikkkkiiinkkmknnkmnoqmllkkkkkkiiiiihgggiedeegeeeeeeeeceeeedeeeeeeeeeeeeeeeeeeeeeedddeeeeeeeeeegklnnnppppppmidbcfig
(PID.TID 0000.0001) //    298 dccbbcccccccccccccccccccccccccddeeefgggghijklmorwz.................................................................................................................+xtqpppnnmmmmmotwyyxvzz++............++.+xnjihhhgggffffffggggggggggghhikiiiklqvxxzzywrpnmlkjiiilnmklmlnnnllnpojmoklkkiiigiggefhdefgfeeeeeeccggeeeeeeeeeeeeeeeeeeeeeeeeeedddbceeeeeedeghhhhinpopppnibbceif
(PID.TID 0000.0001) //    297 cecbbcccccccccccccccccccccccccdgeeeffgiigijklnprx..................................................................................................................+wsqpppnnmmmnpsz++++++..+.............+++tmjihhggggffffggzgggghhgggghhiilpnpxz+zzzzwvnmnlkkiiikkkkklnnmnnmnplllkkllkiiihhgggeegeegifdeededeigeeeeeeeeeeeeeeeeeeeeeeeeeeecbbeedddddeeegeeeegilnoprngcbcgia
(PID.TID 0000.0001) //    296 eecbbbcbccccccccccccccccccccccddeeeeffgghhijlnprz.................................................................................................................+wsrqpqponnopruz++++...................++zrljihhgggfgffffgggfghhggggghhiilnptz++zzyywvlkmmiiikikkkjklmnnmmknpjnnkllkjiiihhgiggggegghfeeddehheeeeeeeeeeffeeeeeeeeeddeeeeebbbeddcccddddeeddddfhlnprqniebcgi-
(PID.TID 0000.0001) //    295 cecccbbbbcccccccccccccccccccccddeeeffgghijjklnpr+................................................................................................................+zusrqpqppoopruzz++.....................++zqkihhgggghgfffffffggggggggghhijlnptz++zywtnlkkmkjkikkiikkkllmmnnmjonmllllkiiihhggegggegghgedddeggfgfeeeeeeefhfffeeeeeedddddecbbbdccccbedddddddeeefjlmqsrqhdbcgi-
(PID.TID 0000.0001) //    294 ccccbbbbbccccccccccccccccccccdddeeeffgghijklmoqy+...............................................................................................................+wusrqpppqqqppsxzz++.....................++zrkihggggffffffffffihgggggghhhijkmpw++zywtlkkklnlkijjijkikkkmklmlmonknmllkkiiigggghgffeghhgedddfggggeeeeeeefgfgfffeeeeedddddccbbbbbccbcdddddddeedehlkmpssphcbcgk-
(PID.TID 0000.0001) //    293 dcccbbbbcccccccccccccccccccccdddeeefffghiijlnorz+.............................................................................................................++wussrqpopqrqrrvz+++.....................+++zrihggfffffffeffeffgggggggghhiikmnpwzzyxvrkklrlslkkkkikjjkimlnklppkknlnmllkkjiggggigfeeghhgeddefggggeeeeeffffgffffeeeeeeddddcbcbbcccbecdcccdeeeeegilkmpssqgcbdghb
(PID.TID 0000.0001) //    292 cdcbbbccccccccccccccccccccccdddeeeffffghhijlmotyz...........................................................................................................++zvtssqqpoppqqqrtxz+++.....................++ztlhggfffffffeeeeffggggggggghhhiknqsyzywuslkllllnlkklkkjikklmnklomjlnnnnmlkkijhggiigegefghgfeddeggggfegeefffffffgffeeeeeeddddcdbcdedeebdcdcceeeeffgjklnqsrpgebdhfb
(PID.TID 0000.0001) //    291 eccbbbdddcccccccccccccccccccdddeefffffgghijklntyz........................................................................................................++zzxussrqqqpopsqqqrsvz++......................+ysmihgffffffffeeeeefgggffgggghhhiimprwyyutlkklnlkkkklkkkjklnmklnojinnnnnnnlkkkjggiiiggeefghgfedeggfeeeheefffggfffgfeeeeeeedddddceeeeebcccdbcdeefgffgijloqsrmecbegcb
(PID.TID 0000.0001) //    290 ccccbbcdccdccccccccccccccccccddeeefffffghiiklnryz......................................................................................................++zzwutrqqqqqqpopqrrrrsvz++......................+unkihggffffffeeeeefggfffgghghhhiiikkpuyyukjkklnkkkkklkkkkknlklngdrnnnnnnnnmnllkhiiigggggfgggfeeghgeefifefgfgggfffggeeeeeeedddddeeeeedcbcbdddeefggffghjlorsspfccdgeb
(PID.TID 0000.0001) //    289 cdcbbbbccccccccccccccccccccccdddddeefffghhiklnqxz.....................................................................................................++zxutrrqqqqppppoorrrrrrtzz+......................zqljihggffffffeeegggffffggiihhhiiiijlnvtqjikkiikkkkkkkkkkkkilnlnrmnnnnnnnmmlknkiiiiggiigggghgfefggeefifegggfghffffgfbdeeeeddddddeeeddcccbcdddefggfefggilorssofcdegec
(PID.TID 0000.0001) //    288 ecccbbbbcccccccccccccccccccccdddddeefffghhijkmpwz+...................................................................................................++zyvtsrqqqppppppoorvrrrrswz+......................zpkjhhggfffffeeefggfffffghhihhiikklllmnpqiiiiiiijkkkkkkkkjilmlpqonnnnnnnnllkkkikiihiihfighihigggggegheggggegfeefffgabeeeeeddddddeeddccbbbcddeefffeefggjlossrlfdeeife
(PID.TID 0000.0001) //    287 ccdccccbcbcccccccccccccccccccddddddeeffgghijknrwz+..................................................................................................+++zwusrrqppppppppopqvrrrrrtz+.....................+uokihggffffffeefffffffffghhhhiiknnnnnnopmiiiiiiiikkklkkjiikknppppnnnnnnnmlkkkikkiijkhhgihgigigggfefggggggegfeeeffffaceeeeedddddeeeddcbbbcddeeeeffeffggilprrpmfeeehhd
(PID.TID 0000.0001) //    286 ddefeeccbbbcccccccccccddcccccddddddeeffgghiilrvyzz+.................................................................................................++zyvtsrrqpooppopoopqvrrrrstvz+....................ytnkihgfffffffefffffffffggghhikkmnppnnppsjkjiiiijkkkklkiikmnmnpppqnonnnnnnnkklkkkjkkiikihfkghigihfgigggggegfefffeeebbeeeeeeeddddeeedccccedddeeeeffffffhjnrrqnifeeehed
(PID.TID 0000.0001) //    285 fdcccccccccccccccccccddddccccdddddeeeeffghikrtvyzzz+..............................................................................................++++zwutsrqqppooooooopqrrrrrrsvz+...................+xpkihggfffffffefffffffffggghhinprvtrnnpprlvsmjikkkkkkkkkknnnnnoppnppnnnnnnlmnnlkjlkijiiigiighhgggghggggfegeegfffeeeagceeeeeedddeeeddcccddddeeeeefffffghkprrqnhegeegbe
(PID.TID 0000.0001) //    284 eccceecccccccccccccccdeeddcccdddddedeffghknstuvxzzzz+...........................................................................................+++++zyvtssrqppoooooooopprrrqrrsvy+...................zrljihgffffffffeefffffffggghhiilntyxtlllllkjiiikiilllkkllnnnnnnoppopppnnnnnmlmnkkllkjjkiihihhhhgffggggggeggefffffegeecceeeeeeeedeeeddcccddeeeeeeefffffginrrrpmkefeeebe
(PID.TID 0000.0001) //    283 cccdeccccccccccccccccdeeddcddddeeeeeefginpxuuvwxyzzz+...........................................................................................++++zzwutsrrpppoooooonopppqrqqrsvz++..................zqljhhgfffffffeefffffgffghhhhiijmtxyvskjgkgiijijpuyslkkmnnnmnpnnpprorponnnlmnnlmnlkkklkiiiihhhggggggggffgggffefefegfcbceeeeeeeeeegecccdddeeeeeeeeffffghkprrrpnnggeecbd
(PID.TID 0000.0001) //    282 bcdcdccccccccccccccccdeeeddddddeeeefglnprrtuvvvwyzzzz+.........................................................................................++++zzwutsrrqppooonooopomooqqqqrsvz++.................yznjihggfffffffeffffgpggghihhhhiiinxywpigggiiiiijjknqvvtvy+xqsppnopprrpplnlnmllnnnklmllljiiihhggggggggffggggffegeefggdbceeeeeeeeegfdccddeeeeeeeeefffgggikorrtqnnfggeedd
(PID.TID 0000.0001) //    281 dbcccccccccccccccccccdeeeehdeeeeeeempqqqqqsuvvvwyyzzz+.......................................................................................++++zzzwvtssrrqppoonooooponmorpqqrrtxz+.................+umjihgfffffffeeffffiihgghihhhhiiilyzskgggihjjijiiiijjmnqrrnnnpnnnopppoplrpmmnpponnnmkllkjiihhggggggfffgggggfgfffegggecddeeeeeeefgeddefeeeeeeeeeefggggiikoqrsrnmeeeeefd
(PID.TID 0000.0001) //    280 cccccccccccccccccccccdddeiqfeeefffkrrrqqrpruuuuwwyyzzz+......................................................................................++++zzwutsrrqpppooonnnoopoomoppppqrtw++.................zrljhggfffffffeffffggghghhiiihhhijp.xjgggihijikkkiiiiilnlnmmmmmnnnnnopmnnnllppnppnnnmlllkkjhhhggggffffggggggfffgeggggeddeeeefdbeeeedegeeeeeeeeeeeggggghikmprsqmkecefgkd
(PID.TID 0000.0001) //    279 eecccccccccccccccecccddeghigffghmlorrrrtqprtttuvwxyzzz+......................................................................................+++zzxvtssrqppooooonnnnoooonnopppqrsz+.................+uokihgffffffffffffffgihhiikkkihhil+.ujgggghiiihjjjiijkkkkmlmlmmmmmnnnmppmpnpppppponnmlklkkjihgggggffeggggggggffffggggfeeeeefecbdeeeeeeeeeeegeggeegggggiikloqqpmieegegld
(PID.TID 0000.0001) //    278 cccccccccccccccccdddddfggghghhilnopqutrpooprrssuvwxyzzz+.....................................................................................+++zywutsrpooooooonnnnnnoonnnopopqrvz..................+tnjiggffffffffffffghmhhimpptpkiiijnnjghhjiihjiiiikijiiikkmkmnlmlmnlmonnlonpopppnpnnnmlllljiihgggggegfigggggggggggggggffeeefedbbcdeeeedddeeeeglgefigigiiikloqpnljeceegid
(PID.TID 0000.0001) //    277 bccccccccccccccccddefgghhhhhijmmorqnomlklmnnpqqrtvwyyzz+......................................................................................++zxvutsqoooonnnnnnmnnnonnmnopqqrsz+..................zrmjhgfffffffffffffgmkhhipv..wnjiiijjgiggiihigiijkjijkiiikkkmmlllllmnmlmnmnnnpnnpponnnmmllkijihihiggefggggghgggggefggfgfeeffecbbcdeeeddddeegfgfeehggighiiknpppmlkeceegge
(PID.TID 0000.0001) //    276 bbccdccccccccccdeffghhhhhhiijkmmopnkiiijjkllmoppsuwxyzz++.....................................................................................++zwvutronnnnnnnnmnmmmnnnnlnoorrsv++.................+zrlihgfffffffffffffgihihjpv..yskiiimgghgghjghjihgiiikikiikikllllklllllnnmlmnnnnnnppnlnmmlkjjmkhiigefegggggggggggeegggggeeeffecbbcdeeedddeeegffeegggggghijknpppmlkedeefif
(PID.TID 0000.0001) //    275 bbccccccccccccddffgggghhhijkklnnnmjhhhhijkkllnoprtvwyzzz+.....................................................................................++ywvusqnmmmmmmmmnzqmmnnmmmnnoqswz...................zwpkiggffffffffffffgghhhiimruzwojiijhgiggikikiiiiiihhihiijiijkkkkkkkmnmlmlnnmmnnlpopnmnnnlkjlikhiiegffgghhggggggegggggggfffffecbbceeedddeeegefeeegggggghhjknppnmlkeeeefgh
(PID.TID 0000.0001) //    274 ccccccccccdccedeeffggghijjklmnnnnlhhhhhiijjklmnoqsuvxyzz++.....................................................................................+ywvuspmmmmmmmmmoronmnmmkmnnoqtz+...................+tnkhggffffffffffffghhhhiijmppoljiighhghigigigighigkiihiiijkjjjkkiillkknknmnlmmmlnnopnnlklmkkkiiggggfhhhhhhgggggghgihggggffffdbbbbddedddeeggeeeeggggggghijlnppnmkjfeeeggg
(PID.TID 0000.0001) //    273 ccccccdddccccdeeeffffgijkmmnnnnnnnhhhhhhiijjklnoprtvxyzzz++....................................................................................+zxwusommmmmmlmvuroonnmmlnnooqsz+..................+zrmkhggffffffffffffgihhhiiijjkkiijmgggghfgiihhhjkghiigigkiiiiijkjkljklkkkkklnmnnnopnpmmmkijiijigihihiihghhhgggggggiigggggggfedbbbcdeeeedeggeeeefggggggghijlmppnnljfeeefff
(PID.TID 0000.0001) //    272 cccccbcdddddcdeeeefffgklnnooonnonnjmgghhhiijklmnopruwyzzz++....................................................................................+zxwurommlllllmmonnonmmmknnnnotz...................zwrljhgggffffffffegggkhhhiiiiiiihigggggiegggggihkghhhhgijihiihhjijkimkkkkkknnmnnnnnpnoomljjkjjhhhgiigihgiiihgggegghkigggggggfedbbcdeffeeeegefgeegggggggghhijlponnmjfedefef
(PID.TID 0000.0001) //    271 cccccbcdddddddddeeefghlnnnppoooooihhggghhiijjklmnoqtwyzzzz++...................................................................................++xwvrommllllllmnmmntmmmknnnmmoy...................zrnkihgggfeffffffecggiihhiiiiihhhiggggghghhggggeighkgjiihhgiigijkigkiiiikklkinnlmnnlnomlkimkiiiigiiihhhhiiihgggfggjiggggggggffeccdefgggfefefgfeggggggggghhiinonnnmgfeddeee
(PID.TID 0000.0001) //    270 ccccccdddddedddeeeffiknooopppvpiihhgigghhhiijkllmnpquyzzzz++....................................................................................+ywvqonmmmmlmmmmmmmmmmmknnmmmms+.................zzpljihhggfefgfeefcfggghhhiiiiiihigggggeegfheifgeigghihhihjggihiiiiiigiiiiikjklnnmnnnpmonknlkkkhgkikihhhhhiihifgggiggggggggggffedeefggggeeffgfefggggggfggghiinnnnnlffdddeee
(PID.TID 0000.0001) //    269 ccccdddddeddeeeeeffhknooppppppohgghhggghhhiijkklmnoruxzzzz++....................................................................................+ywuqpnmmmmmmmmmmmmmmmmlmmmmmmoz.................+xpljihhgggfggggegcffgghhhijiihihgggggefgeefighhihijkghijiighifgijiiggiiiijiikkklnllplnpnnlkkkiihijiihgghiiigheigggggggggggggggfeffgihgegeggfegggggggfffgghhinnnnnkgfedeege
(PID.TID 0000.0001) //    268 bccddccdddddeeeeffhjloopqqpppojgfippiggghhiijkklmopruwyzzz++....................................................................................+ywtqponmmmnnmmmmmmmmmmllmmmmmov+................+uomkiiihgggghiegfcgfffghhiihjijggggggeeegeggigeffgiggghjffhkjikkiiihiiiiiiijkkkklnlnmppnlkkiikhijiiihhhiiigghiihgggggggggggggggffgghgegggggeggggggggeffgghiknnnnmiifedeege
(PID.TID 0000.0001) //    267 bccccccccdddeffffghjlopqqrqpqrjgfgjrhggghhiijkklmoprtwyzzzz+....................................................................................+ywspponnnnnnmmmmlmmmmlllmmlmmoqx................zsolliijifggffeefccgfffgghhhiinggggfegggeeefgefehhghggjkgiijkiiggiijkjiiiikiikkikkinnnnplokkkkiinjiiihiiijgiigggiigiigggggghhhhhggihgegggggfgigggggggefggghimnnnmniifddeegd
(PID.TID 0000.0001) //    266 bbcccdddddddefefghijlnpqqtsppokgfggggggghhiijkklmnpqtvxyzzz+...................................................................................++yvspqonnonnmmmmllmmmllkklllmmnpz...............+ztnkikijjggkfedeeefcegffgghhkdiggggefggfeeeeedfgfggggighigjgheihgigiiiiiiiijkikkkjlnmoololkkmilokjiikiikiiiighiiihihgiggggghhhhihhhgfggggggggfgggggifefggggipnnnmlkjfedeege
(PID.TID 0000.0001) //    265 bcdfddddddcddddfffgjknpqrtrrpnmhffggffgghhiijkklmnopruwzzzz+....................................................................................+xvrpqonnonmmmmlllllllkkjllllllow...............+xsljiiihigigfeeeeedecgffggggdgggffgggggfeeeeeegggfhegggggiigehhgihgiiiiiigkjikkjlknlnnnlllmnkhmlijijkikiiiiiiikiiihiiiggggghihhihggeggggggggggggggfgeffgggginnnmmlkigedeefe
(PID.TID 0000.0001) //    264 cccdeddddddddddeeeeilmopsttvpomkgfffffgghhhijjkklmnoptwyzzz+....................................................................................zwurqqnnppmmmmmlllllllkkjkllkllmv...............zrnkjiiihghgffeeeddddecgfffechggffeeeeffeeeeeedefgeggfgggfigghghghggiiiiiihiijgiikklkikmmnnnlkmkkkjikkiijjkjiiiiiiiiiiiiighihghihggfgggghhhgghhggggggeffggggiknnponkigedffeg
(PID.TID 0000.0001) //    263 dccdedddddcccdddeefhkmnrsttstpmlhfeeffggghhiiijkklmopsvyzzz+...................................................................................+ywtqppmmnnmmllllllllllkkjikkkkkkr..............+zokjiiihggggfeeeedeeddeggeedggggfffgeeeeeeeeeeeefgcefggihfighggggggiihiiijlkiikmkjkkkmmnoonllnkknkkkkiikjkiiiiiiiiiiiiiiiggihgihgggigggggghhhgggggggeeffgggginppqpnmjgeefgee
(PID.TID 0000.0001) //    262 ccccdedddddccccdeefhilmqsttutqokgfeeeffgghhhhiijkllnpsuwyzzz+.................................................................................+zxvtqrqmllmmllllkkkkkkkkjjiikjjjjpz.............zvmjihgggfffffeeeedeededeeddefggffeeeeeeeedddeeeeffeegggggeiehggggjgggigiiihgijkkkmjljklnnmpnmlkmkkklkkkiklkiiiiiiiijiiiiiggiihhggghghgggghghggggggggfgggggggilqrrppnjgeeegeg
(PID.TID 0000.0001) //    261 cccddddedddccccddefgkikortvvuqokgfeeeffgghhhhhiijklnpruwyzzz+..............................................................................+++zzwvrrrqnlklllkkkkkkjjjjjiiiijjjjjmr............+zrljhgffffffffeeeeeddedddddfgfeffeeeeeeeddddddddedeeegeeegfgeiggfghhhigihggiiiiikmjkiikllnonlkmknklkmkkkiklkkiiijiiiijiiiiiijihggfggghhgghghgggggggigggggggggilqrsromkhfeeege
(PID.TID 0000.0001) //    260 cddddddddeddcccddeeflikosvvttonkgfeeefffgghhhhhijkkmoprvxzzz+...........................................................................++zzzzzxwssrqqnmkklkkkkjiiiiiiiiiijjjjjjlpx+.......++++znkhggffffeeeeeeeedccccccccgfeeeeeeeeeedddddddddedfeegeeggfeheggefgmigggghiiiihggijikmkmmmmllplmjllmkkkkjkkjiijhiiiiiiiiiiiiihgggfeiiiighihhgggggggigggggggggjlpruronkgfeeege
(PID.TID 0000.0001) //    259 ddddddddffeedddeeefgilkosuvtskkihfeeefffgggghhhiijkmnpruyzzz++........................................................................+zyyyzzzywussrqqomkjkjjiiiiiiiiiiiiiiiiiijlmpz++...++zzzzumiggffffeeeeeeeeddccbcdcbeeeeeeddeedddedddcccddebceeegedeeegdigeeihggegiigggghgikmjjjimkkmoomnkknjlmkkkkkiiihijiiiiihhiiihihgggggiiiiihiihhggggggghgggggggghjmpsuuonmffedegf
(PID.TID 0000.0001) //    258 ddddeddddeeededeefgikknqswwtoiihgfeeeeffggggghhhijkmnprvyzzzz+.......................................................................+zyyyyyyywvutsrqqqnkjjijiiiihhhhhhhiiiiiiijjmqwz+++++zwwwurihgffffeeddddddddccbccebeeeeddeedddddddddcccccddedeedcgeeghdeicfifehfeghhggggiigkkkmknmmljlqnmkmlmnlkkkkikikkkjiiiiihiiiiihggghhiiiiiihhihhhhhgggghgggggggghkmprtuonpggeefgg
(PID.TID 0000.0001) //    257 ddeddddddddeeefffgikmnpstvvrnihffffeeeffffgggghhijklnprvxzzzz+......................................................................++zyyyyyywwvtssrqsqokjiiiiihhhhhhhhhiiiiiiijkopsxz++zzvstsrrkhgffffeeddddddddcccccededdddeeddddddddcccccccddbeddeedeegheggehgeggefggggggkiiklkmkmjjippmlplmnlnnllkkkiikkkjkiiikiiiiihhghhhhiiiiiiihiihhhhgghgghiggggggghknqrttonmggefggg
(PID.TID 0000.0001) //    256 degededdcddeefhkiikmnoqtuuvvrhgfeefeeefffffggghhijklnprvxyzzz+.......................................................................+zyxxxxwwyvussrrrrojhhhhiihhhhhhhhhhhhhhiiiknoptwzzxvtrppqnkihffgffeddddddddcccbeddddcccddddcddccccccccccccdbccbcffgeiefchhgeegfggghgjlijkjklkmghmpnmnlmmjpnnnnmmkkkkkiijkkiiiiiiihhgiihggiiiiiihgihhhhhhhiggiigggggggikortrronjhgffggg
(PID.TID 0000.0001) //    255 edddeffdddeeeginmjlnprrrtsurifeeeeffeefffffgggghijklmpruxyyzzz........................................................................zxxxwwwwwutssrrrqihgfggghggggghhhhhhhhhhhilmnoptwwusrrppponliffffeeddddddddccbccddcccccdddccdeddccccccdbbecbdbbbggcefeieggegggghhhhikiiiiknkgmkkmlklmkmmpnnlnnnnnnnmiimkkkjkjiiiihhihgggiiiiiihhiihhhhhhgigigggggggggilorprqomgggfgggg
(PID.TID 0000.0001) //    254 ddedeffddeeeegionnmnpqrrniihfdddeefffffffffffgghiijlmoqtwyyzzz.......................................................................+zxxxwvvvttstsrrrnhgffgfggggggggghhhhhhhhhiklmnprttsssqrqpponigffeeeddddddddcccccccccbcccccdceeeedcccccbbbbceebedeedfeegiggghgilhhgggikkkmlfkmnmnkkkljimnloqnlnnnnnolkknmkkkjjjiiihhhgggiihiiijhiiihhhhhggggggggggggghiloqprqmjhggggggg
(PID.TID 0000.0001) //    253 defeeffeeffffgkoppopnnijmfeeddddefffffgfffffffgghijklnpsvxyzzz+......................................................................+ywwwvuuuttttsrsrnggfhfffffggggggghhhhhhhhhjjknqrttuvtttrqqpokhhffeeddddddddcccccccbbcccccdddeeeeeddcbbbbbceeccehebfeeigffiikhjiijjjknpmmlionklkkikkijmlkknnnnlmnnnnlnlklmiijjjiiihggggiihhhiijiiiihhhhhiihgggggggggghilnoruplihggggggg
(PID.TID 0000.0001) //    252 eeeeefffffffgiknpqppihhhgeeeedddeeeeffffffffffgghiijkmortwyyzz+......................................................................+wwvvuuutttsssssroggfgfffffffgggggghgghhhhhiikottuuutxvttqrrqoiihfeedddddddddccccccbcccccddddeeeeeddcbabdbicacehgdcghehjekkiiiklikgklnliigimlkkiijlkillllkkmnnnnpnnllonnlkijjjjjiihgghiighhhiiiiiiiihhiiihghhhgggggghhjknottoihgggggggg
(PID.TID 0000.0001) //    251 deeeefgffffghjlnppokhfffeefffedeeeeeeffffffffffgghijklnpsuwyyzz+.....................................................................yvvuuutttttsssstrpgffffffffffggggggggggghhhhijnsssssstwwtqrrpnlkigfedddddddddcccccccccccdddedddeeedcecddbcheeecgefdegekeiiijkmlnmkkmmlfgiiilliiijkkjkllllkklmnnnknlonnnmkikkkjjjiiggiihgghihiiiiiiiiiiiiihhhhgggggghhhijmptsniggggggggg
(PID.TID 0000.0001) //    250 ddeffffffgghikooonigfeeffffffeeeeeeeeefffffffffgghhiklmprsuwyzz+....................................................................+wuuuttttttssrsstrpfffeffffffffgggggggggghhhhhjnsrrprruttrqrqqponmgfeddddddbddcccccccccdddddddeedfccccedbaegfgbbefcgjfgjijmnjkmpkmlffhhilljikiiiiiikkijkkjkkkklkikiolponniklkkkjjjigiihgghihijiiiiiiiiiiihghhhggggghhhhiknrrqkgggggggggg
(PID.TID 0000.0001) //    249 eeffffffggghkmomkhffeeeefffgmeeeeeeeeleffffffffgghhiklnoqsuvxzz++...................................................................ywuttttttsssrrsstrkgffeffffffffgggggggggghhhgikorqproqrrrqpqpqqppnlffeddddddddcccbccccdddddeddedddcccebbbbefggccgcejiejmikkimoiihgggkmokjgjkiiiiiijkihjllkkkkkiiiilpnmmnjkkjkkkkjjiijigghiigijiiiiiiiiiihhhhhggggghhhhhiknppligggggggggg
(PID.TID 0000.0001) //    248 eeffffggghhiknnnkgfeeeeeefffeeeeeeeeffeffffffffgghhjklnopsvwyzz+++..................................................................zvtstsssssrrqrsssqhgffeffffffffffggggggggggghjnqqppoppqpoonoopqqqoogifeeddddddccccccddddddeeeeeddcbdcbedbbdfgfdfccigifmljighlnkkjhklkjmigikihiiiiikkiiiijkikkjiikknmnomjlkkkkkkkjjikighiiiiiiiiiiiiiiiiihhhhhgggghhhhhhikmnlkhghhhhhhhhh
(PID.TID 0000.0001) //    247 fffffggghhiilmloogedeeeeeffeeeeeeeeeeeeffffffffgghijklmopsvxzzz++++.................................................................xusssssssrqqqqrsrngffeeefffffffffffgggggggggjkoqqrpqnnnnmmmmnnoqqpnkggfededdddccccddddddeeeeeeecdcdbbbdefbdgfgfgkilllimihimlnnklghhkkljggihhhhiiikiiiiiiiikiiikkklkmpniklmklkkkkjjkkghijjiiiiiiiiiiiiiiihhhhhhghhhhhhhhijllkihiiiiihiihh
(PID.TID 0000.0001) //    246 fgggggghhiijlomiiedddeeeeffeeeeeeeeeeedeeffffffghhijjlnoqruxzzz+++++...............................................................+wtsrrssrrqooorssqmgeeeeeffffffffffffgfffffghjjpppqpnnnnmmnmmnnnopomkgffeeedddedddeeeeeeeeeeeeeeedccbbdeggbdghejkmejllmfhlmkjkkggehiggigggiggghiiiiiiijiiijkiiikkkkllkkmolllkkkkkkjkikijjjiiiiiiiiiiiiiihhhhhhhhhhhhhhhhijkllkkjjjjjiiiii
(PID.TID 0000.0001) //    245 gggggghhikmmnppjedccdeeeefffeeeeeeeeeeeeeeefffghhiijkmnoqruxzzz++++++............................................................++yussqqrrrqpnqrrssoifeeeeeeeeefffffffffffffghijjnqpronnnnmmmmmnnnooomkidfeedddeeeeeeeeeeeeeeeeecdeedebdefgicefhehjihikjfoijgihiifeegggefggihggghhiiiiiigiiiiiiiiijjjiikllnnknnllljkklkkjjjiiiiiiiiiiiiiihhhhhhhhhhhhhhhhhijlnnmmllkkjjjiii
(PID.TID 0000.0001) //    244 gggggghijknnnooicbbcdeeeeeeeeeeeeddeeeeeeeeffgghiijjkmmopruwyzzzzzzzz+..........................................................++zvusrqpqqqqpqrrssrniedeeeeeeeeeffffffffffgghhjmopppppnnnopnnmmnnnnnnkjigeeedddeeeefgfffeeeeeeebdegeebcegegedegedhlhjfqkgligjhihggeghghgfggihggghhhhiiigiiiigiiiiiijijkklmnollnnlikjlkkkjjiiiiiiiiiiiiiiihhhhhhhhhhhhhhhhhijlopqqpnmlkkkkkk
(PID.TID 0000.0001) //    243 gggghhhijmpnoonicbbcddeeeeeedddddddeeeeeeeeffghiiijkkmnopruxyzzzzzzzz+.........................................................+++wutsrpppppppqrrsrqniedeeeeeeeeefffffffffgghiiknppppoooorrpponnnnnnmkjiifeeeeeedeeeghgfgfeeeeebceggeeddfieggghhgchlcekmmggideggdgegihggfffgigggghhhghhghiiihhiiiiijjkllmlllonnnnikklnkkkijiiiiiiiiiiiiiiiihhhhhhhhhhhhhhhhikmoqstrpnmllmllm
(PID.TID 0000.0001) //    242 fghijjjjklqqpppigdccddddeeedddddddddddeeeeefgghiiijjkmnopqtyyyzzzzzzz+........................................................++zyvutsrpooooooprrrrqokeeeeeeeeeeefffffgfggggiijknqpppooopssrqpnmmmmlkjhghfeeeeeeeeeefffffeeeefedefegffdbigegdihjihgkijkkkfjheffjdefigeffffgghgggggigggggghiigiiiiiiijiklikllllnllkklllkkkmkjiiiiiiiiiiiiiiiiiihhhhiiihhhhhhiknorttsqonmnnnno
(PID.TID 0000.0001) //    241 fgijknkkkkmoptutmfddddddddddddddddddddeeeeefgghhhijjkmnnoqswyyyzzzzzzz+.......................................................+yxwtttsrpoooooppqrrrqomdeeeeeeeeeefffffgfggggijkmpqpppoppqstrqpommlljihgggfgfegeedeefffgiffffgifefeggeggcigficihihjhpikikfemffigedegfefefffgggggggiggggggiifgiiiiiiiiiijkkiimmnnlnmmnllklmlkiljjiiiiiiiiiiiiiihihiiiiiihhiiijlooqssrqpnnoooop
(PID.TID 0000.0001) //    240 fhjnoolkmmiotvwtneddeeedddddddddddddddeeeeefgghhhhijklmnnpsuwyyzzzzzzz+......................................................+ywuttprrqpooooopqrrrrrpkdeeeeeeeeeeefffffffgggijkprqpppppqrstsqpommljhggffffffeedeeeefffffffgiiggggigiedecgeghcgiiikkrigiffgggiffeefeefgegggfgggggihgggggihfighiiiiiiiiiijkkiiiklnnnnnllnllkklkiijkiiiiiiiiiiiiighhiiiiiiiiiijmpooprrqpppqqppq
(PID.TID 0000.0001) //    239 hhjoqrrlighkpuurideeeeedddddddddddddddeeeeeefgghhhijklmmnoqtvwyyzzzzzzz......................................................zvrpooonnooooooopqrssrrpkeeeeeeeeeeeeeffffggfgiijnrrpppppqrrstsrpoonnjhgffffffeeefeeefffeeeegiighgfhiehececgfihchpkjimlieifgiemgegegeeggggggggghggiehggggggiggighiiiijjiikkkkijilnmnnnmonmllnlnijjkjiiiiiiiiiiiiihhiiiiiiiiiiiknpnoqrrrqqstsrrr
(PID.TID 0000.0001) //    238 ijjkoolhgghkosriedeeeeeddddddddedddddeeeeeeeefghhhijklmmnopqsuuyzzzzzzz+....................................................+upoonnmnmmmnnnopprrsrrrojdeeeeeeeeeeeeffffgggiljknsrqpppqqrrssrqpponniggfffffffeeheeeffeeeeiiggiiiegggggceeiikjdknmhknhifiigefgehfeeeggfgeggggggegeiggggggifghhigigghjhiiikiikmjmlnnnmmmmmllllkkkkkjjiiiihiiiiiiiiiiiiiiiiiiiikmnnqssstsrrrrqqr
(PID.TID 0000.0001) //    237 kmkjihgggginrrrgddeeeeedddddddeeeeeeeeeeeeeeeffghiijklmnooopqrswyzzzzzzz+..................................................+vpoonmmmmmmmmmnooppqpooniiddddeeeeeeeeeefffgfgioklrsrqpppqqqqrrrqpomkihgffffffeeeeigeffeeeeiiggigihegifggefiiklhenhhknmihldiieheegeeegfegeefgfeefeghggggghgggghgiigiihhihhiiikikkkmmmnnmmmmmmllklmlkkjjiiigiiiiiiiiiiiiiiiiiiiijlnpsuuutsrqppplk
(PID.TID 0000.0001) //    236 kmigggggiihjrrngeeeeeeddddddddeedeffffffeeeeefffgiijkklmmnoopqsvxyyzzzzz+.................................................+wqponmmmmmmmmmmmooopponkiifddddeeeeeeeeeefffgfghijnrsrqqqqqqrqrqppoljiihggffffffffgheeeeeeegiggigeeefeegggghjinnkhmggonijeiehceifgeeegfegfeeggeggefggggggggggggghhiiiiiiiiiiikiiklknilmmmmmmmmmlllkkkkkjjiigiiiiiiijiiiiiiiiiiijklnqsuuutsqomlmii
(PID.TID 0000.0001) //    235 kiggghggiijrrngfffeeeeddddddddeedegiffffeeeeeffgghijjklllmnoopsvwyyyzzzzz+...............................................zxsonnnmlllllllmmmnnooonnknmgddddeeeeeeeeeefffgggiikoqrrrqqrrrssrpponkjiihhggfgggfffefffffffghigigeehieiificigllnniqnggkjjmeichcigeeeeegegeeeeeggegggfggggggghgghgggggihiiiiijkiikkkiillklmmmmnnnmllkkkkkjjiiiiiiiiijjiiiijiiiiiikkmoqtuuutrpmkkkji
(PID.TID 0000.0001) //    234 hggggigghnrqmhffffeeeeddddddddeeeflwggffeeeeeffghhiijkklllmnoqsuwxyyzzzzzz+.............................................ztrponnlllllllllmmnnnopqqppokheedddeeeddeeeeefffghiikorrrrrrrssssrponnkjjjiiihhhhggggfffffgffgiggfegghhggefkfkhijnmepkggkimhddlgdhfeeeeeegegfeegfeggffggfggghhggghhggggfeghiijkiijkkkkkkklmnnoooonnmlnnkkkjjjiiiiiiijkkiijkiiiiiiknkmorttttrromkkkji
(PID.TID 0000.0001) //    233 ghggghgghoqriffffeeeeeddddddddeeefggfffeeeeeeefghhiijkkllllmopprtwxyzzzzzz+............................................zupoonmlkkkkkkklllmnnpqrrrrrpmheedddeeeddeeeeeeffghiijkorsstssssssrqonolkkkkjjjjiiiiiihgggggfeegegefihjhgifikgmeminmemjfhigmiccjeggeefeeeeeefeegeefffggfehhhhgghggigfeefiiiiiihhijkkkkkkllnnooooonnnmllkkkkkjjiiiiijjkkjiikkiiiiijmnlmpsttsrppnlkkkii
(PID.TID 0000.0001) //    232 rqkgggggirrlgffffeeeeeddddddddeeeffffeeeeeeeeffghhhijjknmllmnnopruwyzzzzzz+...........................................zvqonnmlkkkkkkkkkklmnpqsttrrrpkgeddedeedddeeeeeeefgiiiijnrtuuttttttrqonoonlkkkkkjjjjiiiihggggggfgeeegihjggigkhjjeoinmflifhghijccidhefgfeeeeeeeggdehfeggehhhggggggggggffiihiiiiggiiikkkkkklmnoooooooonmllkkkjkjjjiiijjkkkjiklllmrljknnlmpsssspomlkkjjii
(PID.TID 0000.0001) //    231 srnhggginrrigffffeeeeeeeddddddeeeeeeeeeeeeeeeeffghhiijkkmkklmmnoqsuxyzzzzz+..........................................zvponnmkkkkkkkkjkkklnnpruuutsrpjgeddedeedddeddeeeefghhhikpsuvvvuuuttrqonnoomlkkkkkjjjiiiihhgghgcgeeekeigkgikgmgijengnkgpjfgggiicgfeieefeeefeeegfcegfeggegggggggggggggghigggiihhggjijkkjikllmnnoooppoonmllkkkkkkkjjjjkkkkkjklrqpnllilmklnprsrqpnlkkkjiii
(PID.TID 0000.0001) //    230 rslhgfgirvpkgffffeefeeeeddddddeeeeeeeeddeeeeeefffgghijjkkjjjklmnopruxyzzz++........................................+zvrnmmlkkkkkkkjjjjkklmprstuutsrpigeddddddddddddddeeffgghijpsvwwwwvuutrronnoomlkkkkjjjjiiihhhghigcgeeefgihigikkmiindtgkihkffgghgicgcgeeffegffefgefggefggffggggggggggfegggggghihiggghiiiihikkllmmnnnnooonmllkkkkkkkkkkkkkkkkkknmnllkljklllnoqqqpomlkkkjiii
(PID.TID 0000.0001) //    229 rrkggfgisrpniffffeelieeddddddeedddeddddddeeeeeffffghhijjiiijkklmmnpsvyyyz+........................................+zupnmllkkkkkkjjjjjkkmmnqsttuuttrpifedddddedddddddddeeffghiiqtvxxxwwvutsqponnnlkkkjjjjiiiihhhhhhhgcfeeeehgjjikklliimdngmiiiegggggfegegefffgggegeeggeegggeffgggggggfggfggggghhiiiggihiiiiihmmkkklmmnnnopoommlkkkkkkkkkkkkkkkkkklpplllkkkkknnnooonnmlkkkkiii
(PID.TID 0000.0001) //    228 lkhgfffgggnniggffeeggeeeeddddddddddddddddeeeeefffffghhhhiiiijjkklnoquxyyz+.......................................+ztpnllkkkkjjjjjjjjkklnonqsuuuttsrpleedddddedddddddddeeffghilqtwyyxwwvutsrponnnkkkkjiiiiiihhhhhhhhgbeeehehgiiinnknlnljmglkhffgfgggcfdggeeegeeggefgeeefgeffffgggggggfefggggghggiigggiiiiiiikjkklllmmnnooooonnlllllkkkkkkkmlkkkkkkkmlnslkkklnnnnnnnmlkkkkjiii
(PID.TID 0000.0001) //    227 ihggffffffiihggfeeeeeeeddddddddddddddddddeeeeeffffffghhhhhhhijjjklnprvwxyz+....................................+zvtomllkkkjjjjjjjjjkkknppnqrtuttsrpnfedddddedddddddedddeefghimpsvwxxxwwvutrponnmkkjjiiiihhhhhhhhhhhgdefgkfigigiqllplnkoigmifgffggefbecgeeegeeffegfeeeggeggfffggggggffggggggghgggfggiiiiiiikkiklllllmmnoooonnmmllllkkkkkkkkkkkkkkkklmnnkkkkmmnnnnmlllkkkkjiii
[...]
(PID.TID 0000.0001) %MON dynstat_theta_sd             =   1.9184653865523E-13
(PID.TID 0000.0001) %MON dynstat_theta_del2           =   0.0000000000000E+00
(PID.TID 0000.0001) %MON dynstat_salt_max             =   3.0000000000000E+01
(PID.TID 0000.0001) %MON dynstat_salt_min             =   3.0000000000000E+01
(PID.TID 0000.0001) %MON dynstat_salt_mean            =   3.0000000000000E+01
(PID.TID 0000.0001) %MON dynstat_salt_sd              =   1.2789769243682E-13
(PID.TID 0000.0001) %MON dynstat_salt_del2            =   0.0000000000000E+00
(PID.TID 0000.0001) %MON advcfl_uvel_max              =   2.7478614999724E-01
(PID.TID 0000.0001) %MON advcfl_vvel_max              =   1.3195401844526E-01
(PID.TID 0000.0001) %MON advcfl_wvel_max              =   1.8903027520315E-05
(PID.TID 0000.0001) %MON advcfl_W_hf_max              =   0.0000000000000E+00
(PID.TID 0000.0001) %MON pe_b_mean                    =   7.0963897870671E-05
(PID.TID 0000.0001) %MON ke_max                       =   2.6916422680716E+01
(PID.TID 0000.0001) %MON ke_mean                      =   1.0055100193481E-02
(PID.TID 0000.0001) %MON ke_vol                       =   1.3391902972189E+18
(PID.TID 0000.0001) // =======================================================
(PID.TID 0000.0001) // End MONITOR dynamic field statistics
(PID.TID 0000.0001) // =======================================================
 cg2d: Sum(rhs),rhsMax =  -1.59241176995250E+02  1.62346530779338E-02
(PID.TID 0000.0001)      cg2d_init_res =   1.42509559807618E-01
(PID.TID 0000.0001)      cg2d_iters(min,last) =      -1    1023
(PID.TID 0000.0001)      cg2d_last_res =   9.99455703203675E-11
(PID.TID 0000.0001) // =======================================================
(PID.TID 0000.0001) // Begin MONITOR dynamic field statistics
(PID.TID 0000.0001) // =======================================================
(PID.TID 0000.0001) %MON time_tsnumber                =                    23
(PID.TID 0000.0001) %MON time_secondsf                =   2.0700000000000E+04
(PID.TID 0000.0001) %MON dynstat_eta_max              =   9.5280081970912E+00
(PID.TID 0000.0001) %MON dynstat_eta_min              =  -4.3046137643500E-01
(PID.TID 0000.0001) %MON dynstat_eta_mean             =   1.1209788911611E-02
(PID.TID 0000.0001) %MON dynstat_eta_sd               =   2.3034337544113E-01
(PID.TID 0000.0001) %MON dynstat_eta_del2             =   4.9706856990833E-06
(PID.TID 0000.0001) %MON dynstat_uvel_max             =   4.0229562313789E+00
(PID.TID 0000.0001) %MON dynstat_uvel_min             =  -7.5982660103111E+00
(PID.TID 0000.0001) %MON dynstat_uvel_mean            =  -8.1176513264516E-04
(PID.TID 0000.0001) %MON dynstat_uvel_sd              =   1.0851253620392E-01
(PID.TID 0000.0001) %MON dynstat_uvel_del2            =   3.6176624545784E-05
(PID.TID 0000.0001) %MON dynstat_vvel_max             =   3.1320966323812E+00
(PID.TID 0000.0001) %MON dynstat_vvel_min             =  -4.0624378573776E+00
(PID.TID 0000.0001) %MON dynstat_vvel_mean            =  -3.1010250415131E-04
(PID.TID 0000.0001) %MON dynstat_vvel_sd              =   9.3692342703591E-02
(PID.TID 0000.0001) %MON dynstat_vvel_del2            =   2.3885715838733E-05
(PID.TID 0000.0001) %MON dynstat_wvel_max             =   3.9728639056916E-05
(PID.TID 0000.0001) %MON dynstat_wvel_min             =  -1.3329206850665E-04
(PID.TID 0000.0001) %MON dynstat_wvel_mean            =   2.1931593382256E-22
(PID.TID 0000.0001) %MON dynstat_wvel_sd              =   5.1411385950318E-06
(PID.TID 0000.0001) %MON dynstat_wvel_del2            =   1.1019165128002E-09
(PID.TID 0000.0001) %MON dynstat_theta_max            =   2.0000000000000E+01
(PID.TID 0000.0001) %MON dynstat_theta_min            =   2.0000000000000E+01
(PID.TID 0000.0001) %MON dynstat_theta_mean           =   2.0000000000000E+01
(PID.TID 0000.0001) %MON dynstat_theta_sd             =   1.9184653865523E-13
(PID.TID 0000.0001) %MON dynstat_theta_del2           =   0.0000000000000E+00
(PID.TID 0000.0001) %MON dynstat_salt_max             =   3.0000000000000E+01
(PID.TID 0000.0001) %MON dynstat_salt_min             =   3.0000000000000E+01
(PID.TID 0000.0001) %MON dynstat_salt_mean            =   3.0000000000000E+01
(PID.TID 0000.0001) %MON dynstat_salt_sd              =   1.2789769243682E-13
(PID.TID 0000.0001) %MON dynstat_salt_del2            =   0.0000000000000E+00
(PID.TID 0000.0001) %MON advcfl_uvel_max              =   2.7958921352519E-01
(PID.TID 0000.0001) %MON advcfl_vvel_max              =   1.3152377296231E-01
(PID.TID 0000.0001) %MON advcfl_wvel_max              =   2.1811429391998E-05
(PID.TID 0000.0001) %MON advcfl_W_hf_max              =   0.0000000000000E+00
(PID.TID 0000.0001) %MON pe_b_mean                    =   7.0869795755829E-05
(PID.TID 0000.0001) %MON ke_max                       =   2.7520022224997E+01
(PID.TID 0000.0001) %MON ke_mean                      =   1.0052822077459E-02
(PID.TID 0000.0001) %MON ke_vol                       =   1.3391902972189E+18
(PID.TID 0000.0001) // =======================================================
(PID.TID 0000.0001) // End MONITOR dynamic field statistics
(PID.TID 0000.0001) // =======================================================
 Computing Diagnostic #    48 "WVELMASS" (list#  1) Parms "WM      LR      ", Count=       1
 Post-Processing Diag #    49 "PhiVEL  " (list#  1) Parms "SMR P   MR      "
   from diag: UVELMASS (#    46) Cnt=       1 and diag: VVELMASS (#    47) Cnt=       1
 diag_cg2d (it=       22) a2dNorm,x2dNorm= 5.134525E-07 , 3.399538E-02 ; Criter= 1.00E-10
 diag_cg2d : k=   1 , it=  4997  5000 ; ini,min,last_Res= 4.0133062E+01 2.7405189E-05 2.7523375E-05
  get Post-Proc. Diag #     50  PsiVEL   from previous computation of Diag #     49
 Computing Diagnostic #    46 "UVELMASS" (list#  2) Parms "UUr     MR      ", Count=       1
             Vector  Mate for "UVELMASS" :  Diagnostic #     47 "VVELMASS" exists
 Computing Diagnostic #    47 "VVELMASS" (list#  2) Parms "VVr     MR      ", Count=       1
             Vector  Mate for "VVELMASS" :  Diagnostic #     46 "UVELMASS" exists
 Computing Diagnostic #    23 "ETAN    " (list#  2) Parms "SM      M1      ", Count=       1
 Computing Diagnostic #    24 "ETANSQ  " (list#  2) Parms "SM P    M1      ", Count=       1
 Computing Diagnostic #    25 "DETADT2 " (list#  2) Parms "SM      M1      ", Count=       1
 cg2d: Sum(rhs),rhsMax =  -1.58625749292528E+02  1.62976394171174E-02
(PID.TID 0000.0001)      cg2d_init_res =   1.39330219847622E-01
(PID.TID 0000.0001)      cg2d_iters(min,last) =      -1    1092
(PID.TID 0000.0001)      cg2d_last_res =   9.87330665110372E-11
(PID.TID 0000.0001) // =======================================================
(PID.TID 0000.0001) // Begin MONITOR dynamic field statistics
(PID.TID 0000.0001) // =======================================================
(PID.TID 0000.0001) %MON time_tsnumber                =                    24
(PID.TID 0000.0001) %MON time_secondsf                =   2.1600000000000E+04
(PID.TID 0000.0001) %MON dynstat_eta_max              =   9.5074713980534E+00
(PID.TID 0000.0001) %MON dynstat_eta_min              =  -4.5168865914125E-01
(PID.TID 0000.0001) %MON dynstat_eta_mean             =   1.1209788911611E-02
(PID.TID 0000.0001) %MON dynstat_eta_sd               =   2.3014126082830E-01
(PID.TID 0000.0001) %MON dynstat_eta_del2             =   5.0695579821186E-06
(PID.TID 0000.0001) %MON dynstat_uvel_max             =   4.0371650121659E+00
(PID.TID 0000.0001) %MON dynstat_uvel_min             =  -7.7266413472065E+00
(PID.TID 0000.0001) %MON dynstat_uvel_mean            =  -8.3699540632156E-04
(PID.TID 0000.0001) %MON dynstat_uvel_sd              =   1.0877086084287E-01
(PID.TID 0000.0001) %MON dynstat_uvel_del2            =   3.6823855543387E-05
(PID.TID 0000.0001) %MON dynstat_vvel_max             =   3.1144197932896E+00
(PID.TID 0000.0001) %MON dynstat_vvel_min             =  -4.0484378767000E+00
(PID.TID 0000.0001) %MON dynstat_vvel_mean            =  -2.9514604782232E-04
(PID.TID 0000.0001) %MON dynstat_vvel_sd              =   9.3363989324615E-02
(PID.TID 0000.0001) %MON dynstat_vvel_del2            =   2.4280523485789E-05
(PID.TID 0000.0001) %MON dynstat_wvel_max             =   3.5116065360922E-05
(PID.TID 0000.0001) %MON dynstat_wvel_min             =  -1.3623476024296E-04
(PID.TID 0000.0001) %MON dynstat_wvel_mean            =   5.7514869637166E-21
(PID.TID 0000.0001) %MON dynstat_wvel_sd              =   4.9761714294106E-06
(PID.TID 0000.0001) %MON dynstat_wvel_del2            =   1.1674639440820E-09
(PID.TID 0000.0001) %MON dynstat_theta_max            =   2.0000000000000E+01
(PID.TID 0000.0001) %MON dynstat_theta_min            =   2.0000000000000E+01
(PID.TID 0000.0001) %MON dynstat_theta_mean           =   2.0000000000000E+01
(PID.TID 0000.0001) %MON dynstat_theta_sd             =   1.9184653865523E-13
(PID.TID 0000.0001) %MON dynstat_theta_del2           =   0.0000000000000E+00
(PID.TID 0000.0001) %MON dynstat_salt_max             =   3.0000000000000E+01
(PID.TID 0000.0001) %MON dynstat_salt_min             =   3.0000000000000E+01
(PID.TID 0000.0001) %MON dynstat_salt_mean            =   3.0000000000000E+01
(PID.TID 0000.0001) %MON dynstat_salt_sd              =   1.2789769243682E-13
(PID.TID 0000.0001) %MON dynstat_salt_del2            =   0.0000000000000E+00
(PID.TID 0000.0001) %MON advcfl_uvel_max              =   2.8431297015992E-01
(PID.TID 0000.0001) %MON advcfl_vvel_max              =   1.3107051549850E-01
(PID.TID 0000.0001) %MON advcfl_wvel_max              =   2.2292960767029E-05
(PID.TID 0000.0001) %MON advcfl_W_hf_max              =   0.0000000000000E+00
(PID.TID 0000.0001) %MON pe_b_mean                    =   7.0745774750569E-05
(PID.TID 0000.0001) %MON ke_max                       =   2.8138754132081E+01
(PID.TID 0000.0001) %MON ke_mean                      =   1.0050355879553E-02
(PID.TID 0000.0001) %MON ke_vol                       =   1.3391902972189E+18
(PID.TID 0000.0001) // =======================================================
(PID.TID 0000.0001) // End MONITOR dynamic field statistics
(PID.TID 0000.0001) // =======================================================
(PID.TID 0000.0001) DIAGSTATS_CLOSE_IO: close file: dynStDiag.0000000000.txt , unit=     9
(PID.TID 0000.0001) %CHECKPOINT        24 ckptA
(PID.TID 0000.0001)   Seconds in section "ALL                    [THE_MODEL_MAIN]":
(PID.TID 0000.0001)           User time:   295.46242971345782
(PID.TID 0000.0001)         System time:   5.3396597970277071
(PID.TID 0000.0001)     Wall clock time:   482.81491994857788
(PID.TID 0000.0001)          No. starts:           1
(PID.TID 0000.0001)           No. stops:           1
(PID.TID 0000.0001)   Seconds in section "INITIALISE_FIXED       [THE_MODEL_MAIN]":
(PID.TID 0000.0001)           User time:  0.51921300590038300
(PID.TID 0000.0001)         System time:  0.12362200580537319
(PID.TID 0000.0001)     Wall clock time:   1.8273448944091797
(PID.TID 0000.0001)          No. starts:           1
(PID.TID 0000.0001)           No. stops:           1
(PID.TID 0000.0001)   Seconds in section "THE_MAIN_LOOP          [THE_MODEL_MAIN]":
(PID.TID 0000.0001)           User time:   294.94317120313644
(PID.TID 0000.0001)         System time:   5.2160277962684631
(PID.TID 0000.0001)     Wall clock time:   480.98753190040588
(PID.TID 0000.0001)          No. starts:           1
(PID.TID 0000.0001)           No. stops:           1
(PID.TID 0000.0001)   Seconds in section "INITIALISE_VARIA    [THE_MAIN_LOOP]":
(PID.TID 0000.0001)           User time:  0.34660094976425171
(PID.TID 0000.0001)         System time:   7.7806994318962097E-002
(PID.TID 0000.0001)     Wall clock time:   1.2855567932128906
(PID.TID 0000.0001)          No. starts:           1
(PID.TID 0000.0001)           No. stops:           1
(PID.TID 0000.0001)   Seconds in section "MAIN LOOP           [THE_MAIN_LOOP]":
(PID.TID 0000.0001)           User time:   294.59655421972275
(PID.TID 0000.0001)         System time:   5.1382167935371399
(PID.TID 0000.0001)     Wall clock time:   479.70194792747498
(PID.TID 0000.0001)          No. starts:           1
(PID.TID 0000.0001)           No. stops:           1
(PID.TID 0000.0001)   Seconds in section "MAIN_DO_LOOP        [THE_MAIN_LOOP]":
(PID.TID 0000.0001)           User time:   294.59639453887939
(PID.TID 0000.0001)         System time:   5.1381900459527969
(PID.TID 0000.0001)     Wall clock time:   479.70174694061279
(PID.TID 0000.0001)          No. starts:          24
(PID.TID 0000.0001)           No. stops:          24
(PID.TID 0000.0001)   Seconds in section "FORWARD_STEP        [MAIN_DO_LOOP]":
(PID.TID 0000.0001)           User time:   294.59606438875198
(PID.TID 0000.0001)         System time:   5.1381463557481766
(PID.TID 0000.0001)     Wall clock time:   479.70126199722290
(PID.TID 0000.0001)          No. starts:          24
(PID.TID 0000.0001)           No. stops:          24
(PID.TID 0000.0001)   Seconds in section "DO_STATEVARS_DIAGS  [FORWARD_STEP]":
(PID.TID 0000.0001)           User time:   2.5815069675445557E-002
(PID.TID 0000.0001)         System time:   1.0127127170562744E-002
(PID.TID 0000.0001)     Wall clock time:   6.8737030029296875E-002
(PID.TID 0000.0001)          No. starts:          48
(PID.TID 0000.0001)           No. stops:          48
(PID.TID 0000.0001)   Seconds in section "LOAD_FIELDS_DRIVER  [FORWARD_STEP]":
(PID.TID 0000.0001)           User time:   2.9962658882141113E-003
(PID.TID 0000.0001)         System time:   1.3328582048416138E-002
(PID.TID 0000.0001)     Wall clock time:   5.9853553771972656E-002
(PID.TID 0000.0001)          No. starts:          24
(PID.TID 0000.0001)           No. stops:          24
(PID.TID 0000.0001)   Seconds in section "EXTERNAL_FLDS_LOAD [LOAD_FLDS_DRIVER]":
(PID.TID 0000.0001)           User time:   1.7976760864257812E-004
(PID.TID 0000.0001)         System time:   5.3063035011291504E-005
(PID.TID 0000.0001)     Wall clock time:   2.1958351135253906E-004
(PID.TID 0000.0001)          No. starts:          24
(PID.TID 0000.0001)           No. stops:          24
(PID.TID 0000.0001)   Seconds in section "DO_ATMOSPHERIC_PHYS [FORWARD_STEP]":
(PID.TID 0000.0001)           User time:   2.2262334823608398E-004
(PID.TID 0000.0001)         System time:   5.8859586715698242E-006
(PID.TID 0000.0001)     Wall clock time:   1.7213821411132812E-004
(PID.TID 0000.0001)          No. starts:          24
(PID.TID 0000.0001)           No. stops:          24
(PID.TID 0000.0001)   Seconds in section "DO_OCEANIC_PHYS     [FORWARD_STEP]":
(PID.TID 0000.0001)           User time:   3.0357956886291504E-002
(PID.TID 0000.0001)         System time:  0.23011778295040131
(PID.TID 0000.0001)     Wall clock time:   1.0170741081237793
(PID.TID 0000.0001)          No. starts:          24
(PID.TID 0000.0001)           No. stops:          24
(PID.TID 0000.0001)   Seconds in section "THERMODYNAMICS      [FORWARD_STEP]":
(PID.TID 0000.0001)           User time:   1.1869430541992188E-002
(PID.TID 0000.0001)         System time:  0.11004573106765747
(PID.TID 0000.0001)     Wall clock time:  0.52203154563903809
(PID.TID 0000.0001)          No. starts:          24
(PID.TID 0000.0001)           No. stops:          24
(PID.TID 0000.0001)   Seconds in section "DYNAMICS            [FORWARD_STEP]":
(PID.TID 0000.0001)           User time:  0.31294351816177368
(PID.TID 0000.0001)         System time:   1.2785157859325409
(PID.TID 0000.0001)     Wall clock time:   7.2443234920501709
(PID.TID 0000.0001)          No. starts:          24
(PID.TID 0000.0001)           No. stops:          24
(PID.TID 0000.0001)   Seconds in section "SOLVE_FOR_PRESSURE  [FORWARD_STEP]":
(PID.TID 0000.0001)           User time:   202.93835008144379
(PID.TID 0000.0001)         System time:   1.8702467381954193
(PID.TID 0000.0001)     Wall clock time:   318.68083429336548
(PID.TID 0000.0001)          No. starts:          24
(PID.TID 0000.0001)           No. stops:          24
(PID.TID 0000.0001)   Seconds in section "MOM_CORRECTION_STEP [FORWARD_STEP]":
(PID.TID 0000.0001)           User time:   3.6336421966552734E-002
(PID.TID 0000.0001)         System time:  0.17126265168190002
(PID.TID 0000.0001)     Wall clock time:  0.47198033332824707
(PID.TID 0000.0001)          No. starts:          24
(PID.TID 0000.0001)           No. stops:          24
(PID.TID 0000.0001)   Seconds in section "INTEGR_CONTINUITY   [FORWARD_STEP]":
(PID.TID 0000.0001)           User time:  0.35628867149353027
(PID.TID 0000.0001)         System time:  0.31340640783309937
(PID.TID 0000.0001)     Wall clock time:   1.7074806690216064
(PID.TID 0000.0001)          No. starts:          24
(PID.TID 0000.0001)           No. stops:          24
(PID.TID 0000.0001)   Seconds in section "TRC_CORRECTION_STEP [FORWARD_STEP]":
(PID.TID 0000.0001)           User time:   1.7762184143066406E-004
(PID.TID 0000.0001)         System time:   1.5795230865478516E-005
(PID.TID 0000.0001)     Wall clock time:   1.7023086547851562E-004
(PID.TID 0000.0001)          No. starts:          24
(PID.TID 0000.0001)           No. stops:          24
(PID.TID 0000.0001)   Seconds in section "BLOCKING_EXCHANGES  [FORWARD_STEP]":
(PID.TID 0000.0001)           User time:  0.44193673133850098
(PID.TID 0000.0001)         System time:   3.7840873003005981E-002
(PID.TID 0000.0001)     Wall clock time:  0.77658915519714355
(PID.TID 0000.0001)          No. starts:          24
(PID.TID 0000.0001)           No. stops:          24
(PID.TID 0000.0001)   Seconds in section "MONITOR             [FORWARD_STEP]":
(PID.TID 0000.0001)           User time:   2.4574990272521973
(PID.TID 0000.0001)         System time:  0.15981155633926392
(PID.TID 0000.0001)     Wall clock time:   4.0190665721893311
(PID.TID 0000.0001)          No. starts:          24
(PID.TID 0000.0001)           No. stops:          24
(PID.TID 0000.0001)   Seconds in section "DO_THE_MODEL_IO     [FORWARD_STEP]":
(PID.TID 0000.0001)           User time:   87.927204370498657
(PID.TID 0000.0001)         System time:  0.90964639186859131
(PID.TID 0000.0001)     Wall clock time:   144.99413514137268
(PID.TID 0000.0001)          No. starts:          24
(PID.TID 0000.0001)           No. stops:          24
(PID.TID 0000.0001)   Seconds in section "DO_WRITE_PICKUP     [FORWARD_STEP]":
(PID.TID 0000.0001)           User time:   5.1104068756103516E-002
(PID.TID 0000.0001)         System time:   3.2738506793975830E-002
(PID.TID 0000.0001)     Wall clock time:  0.13470029830932617
(PID.TID 0000.0001)          No. starts:          24
(PID.TID 0000.0001)           No. stops:          24
(PID.TID 0000.0001) // ======================================================
(PID.TID 0000.0001) // Tile <-> Tile communication statistics
(PID.TID 0000.0001) // ======================================================
(PID.TID 0000.0001) // o Tile number: 000001
(PID.TID 0000.0001) //         No. X exchanges =              0
(PID.TID 0000.0001) //            Max. X spins =              0
(PID.TID 0000.0001) //            Min. X spins =     1000000000
(PID.TID 0000.0001) //          Total. X spins =              0
(PID.TID 0000.0001) //            Avg. X spins =       0.00E+00
(PID.TID 0000.0001) //         No. Y exchanges =              0
(PID.TID 0000.0001) //            Max. Y spins =              0
(PID.TID 0000.0001) //            Min. Y spins =     1000000000
(PID.TID 0000.0001) //          Total. Y spins =              0
(PID.TID 0000.0001) //            Avg. Y spins =       0.00E+00
(PID.TID 0000.0001) // o Thread number: 000001
(PID.TID 0000.0001) //            No. barriers =         105438
(PID.TID 0000.0001) //      Max. barrier spins =              1
(PID.TID 0000.0001) //      Min. barrier spins =              1
(PID.TID 0000.0001) //     Total barrier spins =         105438
(PID.TID 0000.0001) //      Avg. barrier spins =       1.00E+00
PROGRAM MAIN: Execution ended Normally
