(PID.TID 0047.0001) W2_E2SETUP: number of Active Tiles =      48
(PID.TID 0047.0001) W2_E2SETUP: number of Blank Tiles  =       0
(PID.TID 0047.0001) W2_E2SETUP: Total number of Tiles  =      48
(PID.TID 0047.0001) W2_SET_CS6_FACETS: preDefTopol=  3 selected
(PID.TID 0047.0001) W2_SET_CS6_FACETS: facet-dims Unset; assume nRd=nGr=nBl=   32
(PID.TID 0047.0001) W2_E2SETUP: Total number of Facets =       6
(PID.TID 0047.0001) W2_SET_F2F_INDEX: index matrix for connected Facet-Edges:
(PID.TID 0047.0001) W2_SET_MAP_TILES: tile mapping within facet and global Map:
(PID.TID 0047.0001)  W2_mapIO =   32 (=    2*sNx)
(PID.TID 0047.0001)  Global Map (IO): X-size=      32 , Y-size=     192
(PID.TID 0047.0001) W2_SET_MAP_TILES: tile offset within facet and global Map:
- facet  1 : X-size=    32 , Y-size=    32 ;       8 tiles (Tx,Ty=   2,   4)
- facet  2 : X-size=    32 , Y-size=    32 ;       8 tiles (Tx,Ty=   2,   4)
- facet  3 : X-size=    32 , Y-size=    32 ;       8 tiles (Tx,Ty=   2,   4)
- facet  4 : X-size=    32 , Y-size=    32 ;       8 tiles (Tx,Ty=   2,   4)
- facet  5 : X-size=    32 , Y-size=    32 ;       8 tiles (Tx,Ty=   2,   4)
- facet  6 : X-size=    32 , Y-size=    32 ;       8 tiles (Tx,Ty=   2,   4)
(PID.TID 0047.0001) W2_SET_MAP_CUMSUM: setting Facet Matrix for CUMUL-SUM
(PID.TID 0047.0001) W2_SET_MAP_CUMSUM: set    5 /   6 active facets (pass,type=   1, 1)
(PID.TID 0047.0001) W2_SET_MAP_CUMSUM: done (skip Tile Matrix setting)
(PID.TID 0047.0001) W2_SET_TILE2TILES: tile neighbours and index connection:
(PID.TID 0047.0001) current Max.Nb.Neighbours (e.g., on tile    7 ) =  5
(PID.TID 0047.0001) ===== W2 TILE TOPOLOGY =====
(PID.TID 0047.0001)  TILE:    48 (bi,bj=   1   1 ), Nb of Neighbours =  4
(PID.TID 0047.0001)     NEIGHBOUR  1 = TILE       2 (n=  2) Comm = MSG (PROC=       2)
(PID.TID 0047.0001)     NEIGHBOUR  2 = TILE      46 (n=  1) Comm = MSG (PROC=      46)
(PID.TID 0047.0001)     NEIGHBOUR  3 = TILE       9 (n=  3) Comm = MSG (PROC=       9)
(PID.TID 0047.0001)     NEIGHBOUR  4 = TILE      47 (n=  3) Comm = MSG (PROC=      47)
Tile      48 (pr=      48) sends pts i=  -1:  18, j=   7:   8
                              to pts i=  -1:  18, j=  -1:   0 in tile        2 (pr=       2)
Tile      48 (pr=      48) sends pts i=  -1:  18, j=   1:   2
                              to pts i=  -1:  18, j=   9:  10 in tile       46 (pr=      46)
Tile      48 (pr=      48) sends pts i=  15:  16, j=  10:  -1
                              to pts i=  -1:  10, j=  -1:   0 in tile        9 (pr=       9)
Tile      48 (pr=      48) sends pts i=   1:   2, j=  -1:  10
                              to pts i=  17:  18, j=  -1:  10 in tile       47 (pr=      47)
Tile      48 (pr=      48) recv pts i=  -1:  18, j=   9:  10 from tile       2 (pr=       2)
Tile      48 (pr=      48) recv pts i=  -1:  18, j=  -1:   0 from tile      46 (pr=      46)
Tile      48 (pr=      48) recv pts i=  17:  18, j=  -1:  10 from tile       9 (pr=       9)
Tile      48 (pr=      48) recv pts i=  -1:   0, j=  -1:  10 from tile      47 (pr=      47)
(PID.TID 0047.0001) ===  End TOPOLOGY report ===
