(PID.TID 0000.0001) 
(PID.TID 0000.0001) // ======================================================
(PID.TID 0000.0001) //                      MITgcm UV
(PID.TID 0000.0001) //                      =========
(PID.TID 0000.0001) // ======================================================
(PID.TID 0000.0001) // execution environment starting up...
(PID.TID 0000.0001) 
(PID.TID 0000.0001) // MITgcmUV version:  checkpoint69i
(PID.TID 0000.0001) // Build user:        hodahashemi
(PID.TID 0000.0001) // Build host:        Hodas-MacBook-Pro.local
(PID.TID 0000.0001) // Build date:        Fri Feb 20 00:26:36 EET 2026
(PID.TID 0000.0001) 
(PID.TID 0000.0001) // =======================================================
(PID.TID 0000.0001) // Execution Environment parameter file "eedata"
(PID.TID 0000.0001) // =======================================================
(PID.TID 0000.0001) > &EEPARMS
(PID.TID 0000.0001) >  nTx=1,
(PID.TID 0000.0001) >  nTy=1,
(PID.TID 0000.0001) > /
(PID.TID 0000.0001) >
(PID.TID 0000.0001) 
(PID.TID 0000.0001) // =======================================================
(PID.TID 0000.0001) // Computational Grid Specification ( see files "SIZE.h" )
(PID.TID 0000.0001) //                                  ( and "eedata"       )
(PID.TID 0000.0001) // =======================================================
(PID.TID 0000.0001)      nPx =    4 ; /* No. processes in X */
(PID.TID 0000.0001)      nPy =    2 ; /* No. processes in Y */
(PID.TID 0000.0001)      nSx =    1 ; /* No. tiles in X per process */
(PID.TID 0000.0001)      nSy =    1 ; /* No. tiles in Y per process */
(PID.TID 0000.0001)      sNx =  360 ; /* Tile size in X */
(PID.TID 0000.0001)      sNy =  360 ; /* Tile size in Y */
(PID.TID 0000.0001)      OLx =    2 ; /* Tile overlap distance in X */
(PID.TID 0000.0001)      OLy =    2 ; /* Tile overlap distance in Y */
(PID.TID 0000.0001)      nTx =    1 ; /* No. threads in X per process */
(PID.TID 0000.0001)      nTy =    1 ; /* No. threads in Y per process */
(PID.TID 0000.0001)       Nr =    1 ; /* No. levels in the vertical   */
(PID.TID 0000.0001)       Nx = 1440 ; /* Total domain size in X ( = nPx*nSx*sNx ) */
(PID.TID 0000.0001)       Ny =  720 ; /* Total domain size in Y ( = nPy*nSy*sNy ) */
(PID.TID 0000.0001)   nTiles =    1 ; /* Total no. tiles per process ( = nSx*nSy ) */
(PID.TID 0000.0001)   nProcs =    8 ; /* Total no. processes ( = nPx*nPy ) */
(PID.TID 0000.0001) nThreads =    1 ; /* Total no. threads per process ( = nTx*nTy ) */
(PID.TID 0000.0001) usingMPI =    T ; /* Flag used to control whether MPI is in use */
(PID.TID 0000.0001)                   /*  note: To execute a program with MPI calls */
(PID.TID 0000.0001)                   /*  it must be launched appropriately e.g     */
(PID.TID 0000.0001)                   /*  "mpirun -np 64 ......"                    */
(PID.TID 0000.0001) useCoupler=   F ; /* Flag used to control communications with   */
(PID.TID 0000.0001)                   /*  other model components, through a coupler */
(PID.TID 0000.0001) useNest2W_parent =    F ;/* Control 2-W Nesting comm */
(PID.TID 0000.0001) useNest2W_child  =    F ;/* Control 2-W Nesting comm */
(PID.TID 0000.0001) debugMode =    F ; /* print debug msg. (sequence of S/R calls)  */
(PID.TID 0000.0001) printMapIncludesZeros=    F ; /* print zeros in Std.Output maps */
(PID.TID 0000.0001) maxLengthPrt1D=   65 /* maxLength of 1D array printed to StdOut */
(PID.TID 0000.0001) 
(PID.TID 0000.0001) ======= Starting MPI parallel Run =========
(PID.TID 0000.0001)  My Processor Name (len: 23 ) = Hodas-MacBook-Pro.local
(PID.TID 0000.0001)  Located at (  0,  0) on processor grid (0:  3,0:  1)
(PID.TID 0000.0001)  Origin at  (     1,     1) on global grid (1:  1440,1:   720)
(PID.TID 0000.0001)  North neighbor = processor 0001
(PID.TID 0000.0001)  South neighbor = processor 0001
(PID.TID 0000.0001)   East neighbor = processor 0002
(PID.TID 0000.0001)   West neighbor = processor 0006
(PID.TID 0000.0001) // ======================================================
(PID.TID 0000.0001) // Mapping of tiles to threads
(PID.TID 0000.0001) // ======================================================
(PID.TID 0000.0001) // -o- Thread   1, tiles (   1:   1,   1:   1)
(PID.TID 0000.0001) 
(PID.TID 0000.0001) // ======================================================
(PID.TID 0000.0001) // Tile <-> Tile connectvity table
(PID.TID 0000.0001) // ======================================================
(PID.TID 0000.0001) // Tile number: 000001 (process no. = 000000)
(PID.TID 0000.0001) //        WEST: Tile = 000004, Process = 000006, Comm = messages
(PID.TID 0000.0001) //                bi = 000001, bj = 000001
(PID.TID 0000.0001) //        EAST: Tile = 000002, Process = 000002, Comm = messages
(PID.TID 0000.0001) //                bi = 000001, bj = 000001
(PID.TID 0000.0001) //       SOUTH: Tile = 000005, Process = 000001, Comm = messages
(PID.TID 0000.0001) //                bi = 000001, bj = 000001
(PID.TID 0000.0001) //       NORTH: Tile = 000005, Process = 000001, Comm = messages
(PID.TID 0000.0001) //                bi = 000001, bj = 000001
(PID.TID 0000.0001) 
(PID.TID 0000.0001)  INI_PARMS: opening model parameter file "data"
(PID.TID 0000.0001)  OPEN_COPY_DATA_FILE: opening file data
(PID.TID 0000.0001) // =======================================================
(PID.TID 0000.0001) // Parameter file "data"
(PID.TID 0000.0001) // =======================================================
(PID.TID 0000.0001) >&PARM01
(PID.TID 0000.0001) >#rotationPeriod is set ini_parms: 86164 \approx 7.292123516990375e-5 ; our fortan is c/86400
(PID.TID 0000.0001) ># 7.27220521664304e-5 , 6.283185307179586
(PID.TID 0000.0001) >omega = 7.292E-5,
(PID.TID 0000.0001) ># MAYBE WE NEED TO ADD 1E2 FOR STABILITY IDK
(PID.TID 0000.0001) >viscAh  = 0.,
(PID.TID 0000.0001) >viscA4  = 0.,
(PID.TID 0000.0001) >diffKhT = 0.,
(PID.TID 0000.0001) >no_slip_sides = .FALSE.,
(PID.TID 0000.0001) >no_slip_bottom = .FALSE.,
(PID.TID 0000.0001) >exactConserv=.TRUE.,
(PID.TID 0000.0001) >momStepping=.FALSE.,
(PID.TID 0000.0001) >tempStepping=.FALSE.,
(PID.TID 0000.0001) >saltStepping=.FALSE.,
(PID.TID 0000.0001) >hFacMin=0.00001,
(PID.TID 0000.0001) >hFacMinDr=0.5,
(PID.TID 0000.0001) >/
(PID.TID 0000.0001) >
(PID.TID 0000.0001) >&PARM02
(PID.TID 0000.0001) >cg2dMaxIters = 1000,
(PID.TID 0000.0001) >cg2dTargetResidual = 1.E-8,
(PID.TID 0000.0001) >cg2dPreCondFreq = 1,
(PID.TID 0000.0001) >printResidualFreq= 1 ,
(PID.TID 0000.0001) >/
(PID.TID 0000.0001) >
(PID.TID 0000.0001) >&PARM03
(PID.TID 0000.0001) >nIter0   = 0,
(PID.TID 0000.0001) >nTimeSteps = 0,
(PID.TID 0000.0001) >deltaT   = 3600.,
(PID.TID 0000.0001) >monitorFreq=10,
(PID.TID 0000.0001) >/
(PID.TID 0000.0001) >
(PID.TID 0000.0001) >&PARM04
(PID.TID 0000.0001) >usingSphericalPolarGrid = .TRUE.,
(PID.TID 0000.0001) >delX = 1440*0.25,
(PID.TID 0000.0001) >delY = 720*0.25,
(PID.TID 0000.0001) >xgOrigin = 0.,
(PID.TID 0000.0001) >ygOrigin = -90.,
(PID.TID 0000.0001) >rSphere = 6371000.,
(PID.TID 0000.0001) >#clipping elevation of water
(PID.TID 0000.0001) >delR =  11000.0 ,
(PID.TID 0000.0001) >
(PID.TID 0000.0001) >/
(PID.TID 0000.0001) >
(PID.TID 0000.0001) ># Input datasets
(PID.TID 0000.0001) >&PARM05
(PID.TID 0000.0001) >bathyFile='bathymetry.bin',
(PID.TID 0000.0001) ># bathyFile='',
(PID.TID 0000.0001) >#  zonalWindFile='wind.bin',# Forcing to drive the "steady" circulation
(PID.TID 0000.0001) >
(PID.TID 0000.0001) >/
(PID.TID 0000.0001) >
(PID.TID 0000.0001) 
(PID.TID 0000.0001)  INI_PARMS ; starts to read PARM01
(PID.TID 0000.0001)  INI_PARMS ; read PARM01 : OK
(PID.TID 0000.0001) S/R INI_PARMS: No request for barotropic solver
(PID.TID 0000.0001) S/R INI_PARMS: => Use implicitFreeSurface as default
(PID.TID 0000.0001)  INI_PARMS ; starts to read PARM02
(PID.TID 0000.0001)  INI_PARMS ; read PARM02 : OK
(PID.TID 0000.0001)  INI_PARMS ; starts to read PARM03
(PID.TID 0000.0001)  INI_PARMS ; read PARM03 : OK
(PID.TID 0000.0001)  INI_PARMS ; starts to read PARM04
(PID.TID 0000.0001)  INI_PARMS ; read PARM04 : OK
(PID.TID 0000.0001)  INI_PARMS ; starts to read PARM05
(PID.TID 0000.0001)  INI_PARMS ; read PARM05 : OK
(PID.TID 0000.0001)  INI_PARMS: finished reading file "data"
(PID.TID 0000.0001)  PACKAGES_BOOT: opening data.pkg
(PID.TID 0000.0001)  OPEN_COPY_DATA_FILE: opening file data.pkg
(PID.TID 0000.0001) // =======================================================
(PID.TID 0000.0001) // Parameter file "data.pkg"
(PID.TID 0000.0001) // =======================================================
(PID.TID 0000.0001) > &PACKAGES
(PID.TID 0000.0001) >  useMyPackage = .TRUE.,
(PID.TID 0000.0001) > /
(PID.TID 0000.0001) 
(PID.TID 0000.0001)  PACKAGES_BOOT: finished reading data.pkg
(PID.TID 0000.0001)  PACKAGES_BOOT: On/Off package Summary
 --------  pkgs with a standard "usePKG" On/Off switch in "data.pkg":  --------
 pkg/mypackage            compiled   and   used ( useMYPACKAGE             = T )
 -------- pkgs without standard "usePKG" On/Off switch in "data.pkg":  --------
 pkg/generic_advdiff      compiled but not used ( useGAD                   = F )
 pkg/mom_common           compiled but not used ( momStepping              = F )
 pkg/mom_vecinv           compiled but not used ( +vectorInvariantMomentum = F )
 pkg/mom_fluxform         compiled but not used ( & not vectorInvariantMom = F )
 pkg/monitor              compiled   and   used ( monitorFreq > 0.         = T )
 pkg/debug                compiled but not used ( debugMode                = F )
 pkg/rw                   compiled   and   used
 pkg/mdsio                compiled   and   used
(PID.TID 0000.0001)  PACKAGES_BOOT: End of package Summary
(PID.TID 0000.0001) 
(PID.TID 0000.0001) MYPACKAGE_READPARMS: opening data.mypackage
(PID.TID 0000.0001)  OPEN_COPY_DATA_FILE: opening file data.mypackage
(PID.TID 0000.0001) // =======================================================
(PID.TID 0000.0001) // Parameter file "data.mypackage"
(PID.TID 0000.0001) // =======================================================
(PID.TID 0000.0001) >&MYPACKAGE_PARM01
(PID.TID 0000.0001) >/
(PID.TID 0000.0001) 
(PID.TID 0000.0001) MYPACKAGE_READPARMS: finished reading data.mypackage
(PID.TID 0000.0001) SET_PARMS: done
(PID.TID 0000.0001) Enter INI_VERTICAL_GRID: setInterFDr=    T ; setCenterDr=    F
(PID.TID 0000.0001) %MON XC_max                       =   3.5987500000000E+02
(PID.TID 0000.0001) %MON XC_min                       =   1.2500000000000E-01
(PID.TID 0000.0001) %MON XC_mean                      =   1.8000000000000E+02
(PID.TID 0000.0001) %MON XC_sd                        =   1.0392302339552E+02
(PID.TID 0000.0001) %MON XG_max                       =   3.5975000000000E+02
(PID.TID 0000.0001) %MON XG_min                       =   0.0000000000000E+00
(PID.TID 0000.0001) %MON XG_mean                      =   1.7987500000000E+02
(PID.TID 0000.0001) %MON XG_sd                        =   1.0392302339552E+02
(PID.TID 0000.0001) %MON DXC_max                      =   2.7798665505088E+04
(PID.TID 0000.0001) %MON DXC_min                      =   6.0647376310612E+01
(PID.TID 0000.0001) %MON DXC_mean                     =   1.7697236260984E+04
(PID.TID 0000.0001) %MON DXC_sd                       =   8.5552656128781E+03
(PID.TID 0000.0001) %MON DXF_max                      =   2.7798665505088E+04
(PID.TID 0000.0001) %MON DXF_min                      =   6.0647376310612E+01
(PID.TID 0000.0001) %MON DXF_mean                     =   1.7697236260984E+04
(PID.TID 0000.0001) %MON DXF_sd                       =   8.5552656128781E+03
(PID.TID 0000.0001) %MON DXG_max                      =   2.7798731661140E+04
(PID.TID 0000.0001) %MON DXG_min                      =   0.0000000000000E+00
(PID.TID 0000.0001) %MON DXG_mean                     =   1.7697194144702E+04
(PID.TID 0000.0001) %MON DXG_sd                       =   8.5553527331570E+03
(PID.TID 0000.0001) %MON DXV_max                      =   2.7798731661140E+04
(PID.TID 0000.0001) %MON DXV_min                      =   0.0000000000000E+00
(PID.TID 0000.0001) %MON DXV_mean                     =   1.7697194144702E+04
(PID.TID 0000.0001) %MON DXV_sd                       =   8.5553527331570E+03
(PID.TID 0000.0001) %MON YC_max                       =   8.9875000000000E+01
(PID.TID 0000.0001) %MON YC_min                       =  -8.9875000000000E+01
(PID.TID 0000.0001) %MON YC_mean                      =   0.0000000000000E+00
(PID.TID 0000.0001) %MON YC_sd                        =   5.1961474109831E+01
(PID.TID 0000.0001) %MON YG_max                       =   8.9750000000000E+01
(PID.TID 0000.0001) %MON YG_min                       =  -9.0000000000000E+01
(PID.TID 0000.0001) %MON YG_mean                      =  -1.2500000000000E-01
(PID.TID 0000.0001) %MON YG_sd                        =   5.1961474109831E+01
(PID.TID 0000.0001) %MON DYC_max                      =   2.7798731661140E+04
(PID.TID 0000.0001) %MON DYC_min                      =   2.7798731661140E+04
(PID.TID 0000.0001) %MON DYC_mean                     =   2.7798731661186E+04
(PID.TID 0000.0001) %MON DYC_sd                       =   4.6802597353235E-08
(PID.TID 0000.0001) %MON DYF_max                      =   2.7798731661140E+04
(PID.TID 0000.0001) %MON DYF_min                      =   2.7798731661140E+04
(PID.TID 0000.0001) %MON DYF_mean                     =   2.7798731661186E+04
(PID.TID 0000.0001) %MON DYF_sd                       =   4.6802597353235E-08
(PID.TID 0000.0001) %MON DYG_max                      =   2.7798731661140E+04
(PID.TID 0000.0001) %MON DYG_min                      =   2.7798731661140E+04
(PID.TID 0000.0001) %MON DYG_mean                     =   2.7798731661186E+04
(PID.TID 0000.0001) %MON DYG_sd                       =   4.6802597353235E-08
(PID.TID 0000.0001) %MON DYU_max                      =   2.7798731661140E+04
(PID.TID 0000.0001) %MON DYU_min                      =   2.7798731661140E+04
(PID.TID 0000.0001) %MON DYU_mean                     =   2.7798731661186E+04
(PID.TID 0000.0001) %MON DYU_sd                       =   4.6802597353235E-08
(PID.TID 0000.0001) %MON RA_max                       =   7.7276702989699E+08
(PID.TID 0000.0001) %MON RA_min                       =   1.6859188026131E+06
(PID.TID 0000.0001) %MON RA_mean                      =   4.9196033170312E+08
(PID.TID 0000.0001) %MON RA_sd                        =   2.3782534440125E+08
(PID.TID 0000.0001) %MON RAW_max                      =   7.7276702989699E+08
(PID.TID 0000.0001) %MON RAW_min                      =   1.6859188026131E+06
(PID.TID 0000.0001) %MON RAW_mean                     =   4.9196033170312E+08
(PID.TID 0000.0001) %MON RAW_sd                       =   2.3782534440125E+08
(PID.TID 0000.0001) %MON RAS_max                      =   7.7276886894985E+08
(PID.TID 0000.0001) %MON RAS_min                      =   0.0000000000000E+00
(PID.TID 0000.0001) %MON RAS_mean                     =   4.9195916092479E+08
(PID.TID 0000.0001) %MON RAS_sd                       =   2.3782776623264E+08
(PID.TID 0000.0001) %MON RAZ_max                      =   7.7276886894985E+08
(PID.TID 0000.0001) %MON RAZ_min                      =   0.0000000000000E+00
(PID.TID 0000.0001) %MON RAZ_mean                     =   4.9195916092479E+08
(PID.TID 0000.0001) %MON RAZ_sd                       =   2.3782776623264E+08
(PID.TID 0000.0001) %MON AngleCS_max                  =   1.0000000000000E+00
(PID.TID 0000.0001) %MON AngleCS_min                  =   1.0000000000000E+00
(PID.TID 0000.0001) %MON AngleCS_mean                 =   1.0000000000000E+00
(PID.TID 0000.0001) %MON AngleCS_sd                   =   0.0000000000000E+00
(PID.TID 0000.0001) %MON AngleSN_max                  =   0.0000000000000E+00
(PID.TID 0000.0001) %MON AngleSN_min                  =   0.0000000000000E+00
(PID.TID 0000.0001) %MON AngleSN_mean                 =   0.0000000000000E+00
(PID.TID 0000.0001) %MON AngleSN_sd                   =   0.0000000000000E+00
(PID.TID 0000.0001)  MDS_READ_FIELD: opening global file: bathymetry.bin
(PID.TID 0000.0001) // =======================================================
(PID.TID 0000.0001) // Field Model R_low (ini_masks_etc)
(PID.TID 0000.0001) // CMIN =         -6.077489257812500E+03
(PID.TID 0000.0001) // CMAX =         -4.999999999999999E-01
(PID.TID 0000.0001) // CINT =          2.250736762152778E+02
(PID.TID 0000.0001) // SYMBOLS (CMIN->CMAX): -abcdefghijklmnopqrstuvwxyz+
(PID.TID 0000.0001) //                  0.0: .
(PID.TID 0000.0001) // RANGE I (Lo:Hi:Step):(    -1:   362:     1)
(PID.TID 0000.0001) // RANGE J (Lo:Hi:Step):(   362:    -1:    -1)
(PID.TID 0000.0001) // RANGE K (Lo:Hi:Step):(   1:   1:   1)
(PID.TID 0000.0001) // =======================================================
(PID.TID 0000.0001) K =   1
(PID.TID 0000.0001) //                I=8       I=18      I=28      I=38      I=48      I=58      I=68      I=78      I=88      I=98      I=108     I=118     I=128     I=138     I=148     I=158     I=168     I=178     I=188     I=198     I=208     I=218     I=228     I=238     I=248     I=258     I=268     I=278     I=288     I=298     I=308     I=318     I=328     I=338     I=348     I=358
(PID.TID 0000.0001) // |--J--|101234567|901234567|901234567|901234567|901234567|901234567|901234567|901234567|901234567|901234567|901234567|901234567|901234567|901234567|901234567|901234567|901234567|901234567|901234567|901234567|901234567|901234567|901234567|901234567|901234567|901234567|901234567|901234567|901234567|901234567|901234567|901234567|901234567|901234567|901234567|901234567|9012
(PID.TID 0000.0001) //    362 eeeeffffffggggghhhhiiijkklloxqnnnopsvz+.......................................................................................................................................+yvtrpnllkkjjiiihhggffffffeeedddeeedeeeeeeeeeeffggiokgffffggggggggggggffffhihigiiggijjjijjkilllllnlmlkjijjiijiijiiiiijnt++tqpnkiihhhhgggfffffffffffffggggggggghhggggggggggggggggggggggggijkhji
(PID.TID 0000.0001) //    361 eeeffffffgggggghhiiiiiiklmnsyqnnooqsvz+++....................................................................................................................................++vsrpnmlkkjiiiihhgggffffffefeddeeeeddeeeeeeeeeegnhmohgffffgggggggggggggfgghgghijhgfkkjjijjijjknpnnnklkikkjijjkiiiiiiijlpvuqpoomiihhhhggffffffffffffffffggggggghhhgggggggggggggggggggggggilkiig
(PID.TID 0000.0001) //    360 eefffffgfghggghhhhhiiijklmqppnnoopqtwz++....................................................................................................................................+zvqpnmmlkkjjiihhhggffffffffeeeddeeeeeeeeeefeeffffkhnigfgffgggggggggggggggghggjjihgihgiiikkijkimlrlpnmmljkjjkkjikjiiiiijlqsrrponkhhihhgggfffffffffffffffffffgggghigggggggggggggggggggggghhimmlki
(PID.TID 0000.0001) //    359 eefgfgggjihhggghhhhiijjjlmommmnopqrux++....................................................................................................................................++xronmmllkjjiihhhggfffffffeeeeeddeeeeeeeefeeffffejkgljhgfffggggggggggggggggggghiifhjkihjijgjkjljpplnnnlkikjkjkijjijiiiijlqsvppnljgghgggggffffffffffffffffffffffghggggggggggggggggggggggggiknmnml
(PID.TID 0000.0001) //    358 fffggggggghggghihijijjjkknpmmmnopqsvz++....................................................................................................................................+ytponmllkkjiihggggfffffffeeeeeeddeeeeedeeeefffffffgfffffffggggggfgffggggggggggghhgihggijjhikjkklnmnmpmnkkjlkkjkjiiiiiiiimqyrpqomjgggggggfffffffffffffffffffffffffffggffhgggggggggggggggggilponml
(PID.TID 0000.0001) //    357 ffgggggggfhhghhhhiiijjjkkmmlmmnopqtw++....................................................................................................................................+yuqonmmlkkjiihhgggfffffffeeeeeeeddeeeedddeeffffffffffhgffgggfffffffffgggggggggggggggghgjhhijjkjlllnqmmopnlkmlkiiikijiiiiiosurqpomiffggggffffffffffffffgggggffffffffffffgjgffffggggggggfgggknppnmk
(PID.TID 0000.0001) //    356 ffggghggggjhghhhhiiijjklllllmmnopqtx++...................................................................................................................................+yvrpnnmllkjjihhgggfffffffeeeeeeeedeeeeedddefgffffggggggggggggggggffffffggggfffgggggfegggggikkjkkkjmopompnlmnlkiiijihjjiiiimqrqponlhffffffffffffffffffffggggfffffffffffffggfffffffffffffggghmppnmlj
(PID.TID 0000.0001) //    355 fgggimghghhhgghhhiiijjllvnllmmnnoqswz++.................................................................................................................................+zwsqonmmlkkjjihhggfffffffeeeeeeeeddeeeeeddeefgffgggghggggggggggggggggggghggffffffgffffhggiiiiiijkilllkjoolllmkkkijjhhiiiiiijnpponnjgffffffffffffffffffffggffffffffffffffffffffffffffffffgggiloolkig
(PID.TID 0000.0001) //    354 fgggggghjhhhhggghiijkjkkpklllmmmnpquy+++................................................................................................................................zwsqonmmlkkjjihhgggfffffffeeeeeeeedddeeeddeeefgggggggggggggggggggghgggghhhggffffffgggghgggiiikjikjikkkjonmqnmkijjiiikgiiiiiimpqqonmhffffffffffffffffffffffffffffffffffffffhfffffffffffffgggggmonkhgg
(PID.TID 0000.0001) //    353 gggfffhjiiihhhgghiiiiijjjklmlllmmnprvz++.............................................................................................................................+.zwsqonmmlkkjjjihggggffffffeeeeeeeeddddeedeeedeefgghggghggggggggggggggggghhgggffffffggggigggiijjikjiijkilooopnnjjjiijihiiiiiiioqppnnlhgffffffffffffffffffffffffffffffgfffffffffffffffffffggggggmnmhigf
(PID.TID 0000.0001) //    352 ghgffgikiiihhhggghhhiijjjjkpllllmmnquz++.............................................................................................................................++xtqonmmllkkjjiihhgggffffffeeeeeeeeddddedeeeeeeegghgghhghhggggggggghhggghhghigggfffgggghgghiihiiiiijliilnnnpllkkljjkkhgiijhghilqpnnnmigfffffffffffffffffffffffffffffggghffffffffffffffffggiggghkmjhhgg
(PID.TID 0000.0001) //    351 hhggghiihhhlihgggghhhikjjijjkkkkllnquy+++............................................................................................................................+ztrpnnmllkkkjjiihhggffffffeeeeeeeeeedddedeeefeeeefghghiiiihggggghhhhhghhikhghihgggfgfggigiiighhhhiikkiklnnolkikkkjikjgjjkhggghknponmlggfffffeeeeffffffffffffffffffffggihgfggffffffffffffgggggggimkkjjj
(PID.TID 0000.0001) //    350 ggggghhhhghihhgggggghhjiiiiiijjjklmpuxz++++.......................................................................................................................+++zysponmmllkkjjjiihhggfffffeeeeeeeeeeeeeedeeeeffffkhihhhhikkjhhhhhhhhhhhhhhhighggggggfffgihihgghhhiijmjilllmmkjmmkkijjhiiihhggghkoonnnlffffffeeeeeeeeeeeeeeeffffffeeeefglkhggfffffffffffffgggggggjnnlllk
(PID.TID 0000.0001) //    349 ggggghgijhhikhhgggggghhhhhhhhiijjjjpsvxz+++.......................................................................................................................+zzzvqonmmllkkkjjiihhggffffffeeeeeeeeeeeeeeeeeeeefffiiliiiijmlkjhhhhhhihhhhhhikhghgggggffghihhhhhhijiikkijklloljnomkjikigiigiijgghjnmmmnkffeffeeeeeeeeeeeeeeeeeeeeeeeeeeegjmmggfffffffffffffgggggghjmmlllk
(PID.TID 0000.0001) //    348 ghhghhhoigghggggffggggghgghhhhiiihinqtvx++++......................................................................................................................+zzxtponmmllkkjjjihhhggffffffefefeefeeeeeeeeeeeeefgfgilkjiipnmljiiihhhhikijhiipkkjhhhgggghiihhhiiiihhjljjjklomklrmljikijgkhiiiihhhjlkjllhfeeeeeeeeeeeeeeeeeeeeeeeeeeeeeeegjllhfffffffffffffffgggggikkllkji
(PID.TID 0000.0001) //    347 hhgihhhigfgffffgffffffgffgghhhhhhhiknrsuxz+++....................................................................................................................+zyxxuqonmllkkkjjihhhgggffffffeeeeeeeeeeeeeeeeeeeeggghjonmjornmmlkjkihhhiihhhhinljjkjihhhhiihhiiiijihjjijkkkjklnlnkjijjjhliiiiiiiijjiijjieedeeeeeeeeeeeeeeeeeeeeeeeeeddeeegkkigffffffffffffffffggggjnlkkiii
(PID.TID 0000.0001) //    346 ggghgghgfffffffifeeeffffffgghhhhhhiiloqruxz+++...................................................................................................................zzxxwtqonmlkkkjjiihhgggffffffffffhfeeeeeeeeeeeeeegggkjnopnorsuussolkiihhiiiiihiljnkmliiihiihhiiiijjikijikkkjlmmkmlkiijjlijiiiiiiijklllkmmeddeeeeeeeeeeeeeeeeeeeeeeeedddeeehkkgggfffffffffffffffffggknnlkkkj
(PID.TID 0000.0001) //    345 gggggfffeffeeeeeeeeeffffffggghhhhiiijlnprsxz+++..................................................................................................................zxwwvtqommlkkjjiihhgggfffffffffeeffeeeeeeeeeeeeeeggiiknnnotyyzz+zwqlkjiiikiiiijijkklkjiiiiihiiiiiiiiikiijijklkjmlkiikkkjiiiiijiiikmnnnmnnfddeeeeeeeeeeeeeeeeeeeeeeeedddeeeekkiggfffeefffffffffffffglnonnmlj
(PID.TID 0000.0001) //    344 gffgffffeffeddddddemkfeefffggghhhiiijklmoptx++++................................................................................................................+yxwvusqnmmlkjjiihhgggffffffffffeeeeeefeeeeeeeeeeggghilnnnqzz+++++ztqmkjiijmiiiiijkllklkjiihiiiiiiiiijiijiijkkimllkinmkkjiiiijjiijlorqpookeeeeeeeeeeeeeeeeeeeeeeeffeeeeeeeehkkiggfeeeeefffeeeeeeeefgjnpnnlji
(PID.TID 0000.0001) //    343 gggffffffeeedefeheemieeefffggghhhiiijkkllnptwz++................................................................................................................zxxwutsqomllkjiihhhgggfffffffffffeeeeeeeeeeeeeeeegfghikmoqwz++++++zytnlkjiijiiiiijnlkkkkjiiiiiiiiiiiiiiiiiijkjmllljnnpmkkkjiiiiijkmpwrppojfefeeeeeeeeeeeeeeeeeeeeffeeeeeeegkljifeeeeeeeeeeeeeeeeeefgilmkhgfg
(PID.TID 0000.0001) //    342 ggggfffffeedddehmddeeeeefffffghhhiijjkkllmnqsvy++.............................................................................................................++yywutssqnmllkjiihhhggggffffffffffeeeeeeeeeeeeeeeeffghiinrtz++++++++zwronkjiiiiiiiikkjjkkkjiiiiiiiiiigiiiikiiikmlljlrqnlklljiiiijknqwsrqpngfefeeeeeeeeeeeeeeeeeeeeeeeeeeeeegikiheeeeeeeeeeeeeeeddddefilligeee
(PID.TID 0000.0001) //    341 hhhfffffgedddehiefdeeeeeeffffgghhiijjkklmnoprsuz++............................................................................................................+yyzvtsrqpomlkjjiihhhgggggggffffffffeeeeeeeeeeeeeefeffhihxnoruxzz+++++zvrqnjiiiiiiiiiiijjklkiiiiiiiijhikiiijkijlljjmomonlnlkjkiiijlruyurqpneeeeeeeeeeeeeeeeeeeeeeeeeeeeeeeeefgiifddeeeeeeeeeeeeedddddegkkhfeee
(PID.TID 0000.0001) //    340 ijigffefgdcggeeddedgefeeeffffgghhiijjkklmnoprsuyz++...........................................................................................................zxzyutsrpoomlkkjiihhhhgggggggfffffffeeeeeffeeeefeeeefgigpwnmmopsuy+++++zwrpljiiiiiiiiiijjkkjiiiiiiihgiiiiijkjikkjjmplmlomlkkkiiijlptvwvsqokeefeeeeeeeeeeeeeeeeeeeeeeeeeeeeeeegggeddeeeeeeeeeeeeeeeeddefkkgheee
(PID.TID 0000.0001) //    339 jkjgfeeedccfedddddddeeeefffffgghhiijjkklmnoprtuxz++..........................................................................................................+zxzyusrrponmlkkjiiihhhgggggggffffffffeeeefgfeeeefeffgghgvxnmlllmnquwy+++ztroljiiiiiiiiijjkkiiiiiiihghiiijjjiikjkikmlmmjonllkiijjlpuyxwrppnieffdddeeeeeeeeeeeeeeeeeeeeeeeeeeeeeffeeeeeeeeeeeeeeeeeeeddehjijkige
(PID.TID 0000.0001) //    338 klifeeedcbbccdeddddddeeeffffggghhiiijjklmnnppsvyz++..........................................................................................................+zywwusrqonmmlkjjjiihhhhgggggggffffffffeefgiifeeeeeffggfkxyypkkklmronpz+zvvuromkjiiiiiiijjjjiiiiiiiijkjiiiiikijkilklnljmomjlijjkkmruxyxvronjeeedddeeeeeeeeeddddeeeeeeeeeeeeeeeeeeeeeeeeeeeeeeeeeeeeeddfhkmnmkhf
(PID.TID 0000.0001) //    337 iigfhgedcbbbcggfddddddeeffffggghhhiijjklmmnprsuwy++..+.......................................................................................................++zwuusrqpnmllkjjjiihhhhggggggggfffhgfffefjkiffeeeeffgfhsyunkkkkkoynmoytrtwvtspmjiiiiiiiiiiiiiiiiiiijiiiijijjkkiiljknjonkjkijkklloqzzzzztnmiedeeeeeeeeeeeeeddddeeeeeeeeeeeeeeeeddddeeeeeeeeeeeeeeeeeedfjmppmkii
(PID.TID 0000.0001) //    336 hghkigedbbbbcdhhddddddeeffffggghhhijjjkkllnpqtvyz+++.........................................................................................................+++xutssqpnmllkkjjiihhhhhggggggggffgggffffjkigfeefffffflxzokkmokkoqmmpyqosvvvusokjiiiiiiiiiiiiiiiiiiiiiiiikijkjjkjoojnolikkijkkkmpy++++zsnmfedeeeeeeeeeeeeeeccdeeeeeeeeeeeeeeedddddeeeeeeeeeeeeeeeeeddehmpolkji
(PID.TID 0000.0001) //    335 hippifeccbbbbcgfddddddeeeffffggghhiijjjkklmoqtvyz+++.........................................................................................................+++zuttrqpnmmlkkjjiihhhhhhggggggggfffffffilmigffffffffeptqkjjkmkkllklsxopxuuvvspmkjjiiiiiiiiiiiiiiiiiiiiiikkliikjmkjnnnkjkjjkkkkmsz++++vqnreedeeeeeeeeeeeeeedcdeeeeeeeeeeeeeeddddddeeeeeeeeeeeeeeeddedgjmpnmljh
(PID.TID 0000.0001) //    334 pmihfedcbbbbbbcdddddddeeeefffggghhhhijjkkkknqsvxyz++..........................................................................................................+zyvuusqpommlkkjjiiihhhhhhgggggigffffffinnligfffffgggeotkijjjkjklkklqqoorvuuutqnlkjjiiiiiiiiiiiiiiiiiiiiijjiijjjjlonnmilkkkkkkkoszzz+zurmkeddeeeeeeeeeeeeeedddeeeeeeeeeeeeeeeeeeeeeeeeeeeeeeeeedddddehmnnlikjg
(PID.TID 0000.0001) //    333 mogfeddcbbbbbbcddddddddeeefffggghhhhiijjkkkmpsuwxz+++..........................................................................................................+yzwusqponmlkkjjiiiihhhhhhgggggggffffiqonlihggffghiiemsiijljjjjklklppoqnorttsrpnldfijiiiiiiiiiiiiijiiiiiiijiiiijmnnnllnkjjkkknsyxwwvxsqlkeddeeeeeeeeeeeddddddeeeeeeeeeeeeeeeeeeeeeeeeeeeeeeeeeddddcdgjmnlhgif
(PID.TID 0000.0001) //    332 hgeeddcbbaaabbcddddddddeeeffffggghhhhiiijjjkprtuwyz++...........................................................................................................zywusqponmlkkjjiiiihhhhhhhggggggffggkkknnkihgfgghiientjiijjjjjjkklttoxnmnrttsrqolkejjjjiiiiiiiiiiiiiiiikkjijijmmnmlmnnjijjkkotzzvtuusnlkeeeeeeeeeeeedddeeeddeeeeeeeeeeeeeeeeeeeeeeeeeeeeeeeeedddccbcinnlhgec
(PID.TID 0000.0001) //    331 eeeedddcbaaaabbccccddddeeeefffgggghhhhiiiijkoqstvxyz++.........................................................................................................++ywusqonmllkkjjiiiiihhhhhhhggghggggghiimnkkjhggfgihegrjiikijjjjjkknonxvmmottttsqnmlkkkkjjjjjjjiiiiiiiiijjjkikklnjlonomiiikkloxzyvtuyrlkiegeeeeeeeeeedddeeeddeeeeeeeeeeeeeeeeeeeeeeefgfeeeeeeedddcbcdhnnjgecb
(PID.TID 0000.0001) //    330 ddeedhjcbaaaabbbccccddddeeeffffggghhhhhiiiijnprsuvwxz+.........................................................................................................++zwtrponmllkjjjiiiiihhhhhhhhhhhhhigffhikmjkkihgfgifeeoliiiiijkjjkklnmpwmmmprtutsrpnlkkkkkkkkkjjiiiiiiiiiikkkklmjmoonmjkijkkmqxtvvtttpjifgfeeeeeeeeeedddddeddeeeedddddeeeeeeeeeeeeeefegfeeeeeeedddddeinnhfecc
(PID.TID 0000.0001) //    329 dedderkbbbaaabbcccccddddeeefffffggghhhhhhiijnnqrstuuy++........................................................................................................++zvsqponmlkkjjjiiiiiihhhihhhhihhgggfffgimiiokigfgghiellhhhhiikjjlnlomlonlmnpsuuutrpnmmllkklkkkjiiiiiiiiiikjklljlomnnjjiijkkmpruvtttsnjhegeeeeeeeeeeeeddddddeeeedddddddeeeeeeeeeeeeeefggfeeeeeeeeeeefiooifecc
(PID.TID 0000.0001) //    328 edcchgcbcbbbbbbccccccddddeeefffffggghhhhhhijlooqrsstxz+........................................................................................................++xusqponmllkkjjiiiiiihhhhijjiljhggggfhgghhhiiigfghihekmihhhiijkjklmllklllmnoqtvuuutqonmmlllllkjiiiiiiiiijikkjjlmlomkkkijikmnrttvrsroljhffeeeeeeeeeeeedddddeeeeedddddddeeeeeeeeeeeeeggggeedddeeeeeeegkonifdbc
(PID.TID 0000.0001) //    327 ddcdjebgjbbbbbccccccccddddeeefffffgggghhhhijknopqrstwz++.......................................................................................................+yvusqonnmmlkkkjiiiiiiihhhhjmmpqjggggggggffgijhgghijiegrlihiiijkjkkklkkkkklmnpsvuvtyuqponmmmllkjiiiiiiiiijjkiikmkopmkkkiijlnpsusurqpnljggeeeeeeeeeeeedddddeeeeeeeddddeeeeeeeeeeeeeegggggedccddeeeeeehnnmhfdbc
(PID.TID 0000.0001) //    326 ccdccbbcbbbbbbbcccccccddddeeeffffffgggghhhijkmopprstvy++.......................................................................................................+yutrponnmmlkkjjjiiiiiiiihhijlswqhggghigffffhiiklnliifejnoiiiiiijllmnlklkklmnpqsuvxzwrqppponmlkkjiiiiiijijkijkkjmpljkkjiiklrsrssqppomliggeeeeeeeeeeeeddddeeeeeeeeeddeeeeefeeeeeeeeefgggecccbceeeeeeehnnkgedbb
(PID.TID 0000.0001) //    325 ccdbbbbaabbbbbbbbcdccccddddeeeffffffggghhhiijmnpqrsuvy+........................................................................................................+ytqqpnnmllkkkkjjjjiiiiiihhiiksuqiggggggfeffijmtnppjiifegjjjjiiijlllllkkkkllnopsuvxzytrqqqpnmllkkjjiiijijkjjkllmldmjkkijiklrtsrqppnnmkiggeeeeeeeeeeeeeeeeeeeeeeeeeeeeeeeeeeeeeeeeeefgheddcbcdeeeeeeegmnkgecbc
(PID.TID 0000.0001) //    324 cccbbbbbbbbbbbbbbccdcccddddeeeeefffffggghhiiknopqqsuxz.........................................................................................................+zupoomlnnmlllkkjjjjiiiiiihiiilnhhggggggffgikmqvnkliigiiehmjiihijkmllkjjjjklnopstvxzzurqqqqonmlkkjijkiiiiijkjlmkfmkkkjkijkortrqqpnnmlkggheeeeeeeeeeeeeeeeeeeeeeeeeeeeddeefeeeeeefeefgffedcceeeeeeeeehmokgecbc
(PID.TID 0000.0001) //    323 ccbbbbbbbbbbbbbbbcccccccddddeeeeeffffggghhhiknoprrsux++.........................................................................................................+uqpnmmoonnmllkkjjjjjjiiiinxpiihhhhggggffhjlnrytnpiiijiggiiikhijkjklljjjjkklnpqtvwyzvtrrrqppomlkkkjjkjiijkjllkjmlllkijijknpqppppnmlkiggeeeeeeeeeeeeeeeeeeeeeeeeeeeedddefgeffeeffeefegeebdeeeeeefffehnokgecbc
(PID.TID 0000.0001) //    322 cbbbbbbbbbbbbbbbcccccccccddddeeeeffffgggghhijnpprrstwz+.........................................................................................................+wsromnoponmlllkkjjjjjjiiijolhhjshhgggggfilnotwtpkiiiiggidiiiijkjklokjiijjklmoprxyyvvvwwusqqqonlkijijiikkikljpllmlkjjkiiklmnppppnmljilfeeeeeeeeeeeeeeeeeeeeeeeeddddddddeeifdeeeeefegegcdeeeeeefeeeeglmjfdcbb
(PID.TID 0000.0001) //    321 cbccbbbbbbbbbbbccccccccccdddddeehfffffggghhijmooqrrsvy+..........................................................................................................yvtrnnpponmmllkkjjjjjjjiiikmjikqihgghiigkpvtuvsliiihgffghjiiijikjkpkiiiijjkmopquzzwxzzzzytrromkjiiijkkijkkkpjmmmjkjkijjijkmnoqsnmljimgeeeedddeeeeeeeeeeeeeddddddddeeefggeddeeeeeeeggecddeeeeeefedegjkjgdcbb
(PID.TID 0000.0001) //    320 bbccbbbbbbbbbbbcccccccccccdddddefeeffffgghhijknpqrrstxz+.........................................................................................................+zxuqooqponmmllkkkkjjjjiiiijkijmkhhhijiinrruuzpoihgggffgijiiiiiijlpnijiiijklnppqy+zz++++zzwrokjiiikkkikkjjohknmjmjkjiiijklklmptolkiihgeeeccddeeeeeeeeeeddddddddddeeeeeeddedeeeeeefghedeeeeeeeeedddfikigdcbb
(PID.TID 0000.0001) //    319 bbbbbbbbbbbbbbbcccccccccccdddddeeeeffffgghhiijmpqrsstwz+...........................................................................................................+xsporqoonmllllkkkjjjjjiiijkijihhhjkhjnpqrnrkiihgggfffghiiiiiiijlvljiiijjlmnnosz++++++++zuqnjkkjjijkjjmojopnlmkikkiijjmmllmnqnkiiigeeeeccdeeeeeeeeedddddddddddddddddddddeeeeddeeiedeefeeeeeeeddehkkifdcba
(PID.TID 0000.0001) //    318 bcbbbbbbbbbbbbbccccccccccccddddeeeefffghihhiimkoprsstvxz+...........................................................................................................zurorqponmmllllkkkjjjjjjkkkiiiiiiklkilnonkijiiggggffffgghiiiiihikliiiiijklmnnqx++++++++zwsqmlkjikjiimlmpnmmmijkkijkkjjjllmnpmjiihfdeeeccddeeeeedddddddddddddddddddddeeeeeeeddegfeeefeeeeeeeeddfimlkfdcba
(PID.TID 0000.0001) //    317 ccbbbbbbbbbbbbbbcccccccccccddddeeeeffffgghhjijompssttuvy+...........................................................................................................zvrpsqponmmmllllkkkkkkjjkliiiiiijkmmkllmskihhhgggffffffgghiiijiiiihhiiiijklmnptz+++++++ztpnlkkkkjijkilnkknkjijkkjkkjjjllomnmkjiihdceeeddddeeeeddddddddddddddddeddddeeeeeeeeeefgeeeeeeeeeeedeeefnqomhdcaa
(PID.TID 0000.0001) //    316 ppcbbbbbbbbbbbbbbcccccceccccdddeeeeffffgghiiikkknsqttuvwz+.........................................................................................................+zwrssqponmnpnlllllllkkkjjjjjjiijklmnnpplpjhhhgggffffffffghiiiihhhhhhhiiijjlmnoqyz++++++xqnlkkkkkjjljmnjjklnlkkklkkkijmnnonnlkiigicgeeeeddeeeeddddddddddddedddddddeeeeeeeeeeefgeeeeeeeeeeeedehegpsrohcbab
(PID.TID 0000.0001) //    315 gdbbbbbbbbbbbbbbbbbcccccccccddddeeefffgghhiiijjklmoqsuvx+..........................................................................................................+zvruuqponmoxpllllllllkkkjjkokjjkkmnoqomkiihhggghgfffffffgghijhhhhhhhhiiiijklmnoszzzz++zuomllmkkjjkjmokkkkklllklllkkjkklmnnmlkigfhcfeeeeeeeeeedddddddddddddddddeeeeeeeeeeeedehfeeddddcccdeedeeehpsrnfcbac
(PID.TID 0000.0001) //    314 bbbbbbbbbbbbbbbbbbbcccccccccddddeeeffgghhiiijjkklnpqstuy+..........................................................................................................+zuqstqonnnq+smmllllllkkkjkmwljklmnqrtmljiihhggggffffffffgghiiihhhhhhhhiiiijlllnpuzzzz+ztommmjjijkjlmjkollkklkkklkjijijllmmlkjiiggcdeeeeeeeeedddcbcddddddddddddeeeeeeeeeeeddejefddddccbcdeeedeeipsrmfcbcd
(PID.TID 0000.0001) //    313 bbbbbbbccccccccccbbcccccccccddddeeeffgghhiijjkkklpqrstvx+..........................................................................................................+zsqrrqonmouxtmmrmllllklkkkkkkpmmpruxtmkjiihhgggfffffgfffggghkihhhhhhhhhiiiijklmoqwzzzzwsolkjjijijkkjmnmmnmlllklkjihiijklllkjighgeddeeeeeefedddcbcdddddddddddddeeeeeeeeeeeeflegddddcbbbdeeeedefiorqmfbbcd
(PID.TID 0000.0001) //    312 aabbccccccccccccccccccccccccddddeeeffgghhiijkkklmpqrstvy+...........................................................................................................zsqxqpnmmmnotosysmmllklpnkjlnzutwx+zvplkjihhhggffffffffffggghhhhhhhhhhhiiiijklmoqvzywsqmkjiiiiikkklmkpnmmlmllkkjkiiijkkkkjkjhhggfedeeeeeefedddcddddddddddddddeeeeeeeeeeefgihhicedcbccgeeeeeeegjpqplebbbe
(PID.TID 0000.0001) //    311 aaacccccccccccccccccccccccccddddeeeffghhhijjkkllmpqrstvz............................................................................................................ztqrponmlklozwntsnnmmkwzukkkszyz++.+yqnljihhhggffgggfffffgggihhhhhhhhhhiiiijklmorwyvpnlljjkjjkjkjklknlnnonmlmkjjjiijjkllkkiigggfeeeeeeeeeeedddddddddddddddddeeeeeeeeeeffeeihhgdeddcdeeeeeeeeegjpqoldbbce
(PID.TID 0000.0001) //    310 aabcccccccccccccccccccccccccdddeeefffghhhhijkkllmpqrtvz+............................................................................................................zspppomllklqrpmllvxrmllmllklwzxz++..zvrmkiihhggffffgggffggggihhhhhhhhhhhiiijjklnuzxqolkkkjiikkkjjiknlomopnlmkjjjikjjkkkkjiigggfedeeeeeeeeeedddeddddddddddedeeeeeeeeeeeeeeghfgfeeeddeeeffffeeefiprokdbbdd
(PID.TID 0000.0001) //    309 aabbccccccccccccccccccccccccdddeeefffghhhiiijkllmoqrty.............................................................................................................+xspppnmllllnnmlklu+umlkllllnzxx+++...+vnkjiihggfffffggffgihhhhhhhhhhhhhhiiijjjkouysonmkkkjjkkkjnjklmmpnoonnkkkmkjkjjkjjjiiigigedddeeeeeeeeeddddddddddddddddeeggeeeeeeeeeggegiegeeeeefeggggfeegiqrohcbbce
(PID.TID 0000.0001) //    308 bbbbbcccccccccccccccccccccccdddeeeffgghhiijjjkllmnprw+..............................................................................................................ysqqonmmllllmllllqvqllkllllmqsy+++...+tolkjihhggfgjghgffghiihhhhhhhhiihhiiijjjlqwwtpolkkjjjjjkljjlmmmomnlkkmmkkkkjjijjjjijihhedddcceeeeeeeeeedcccddddddddddeeggfeeeeeeeeefgifgheeeefhgggggggfhlrrnicbbcf
(PID.TID 0000.0001) //    307 cbbbbcccccccccccccccccccccccdddeeeffggghhijjkkklmnps+...............................................................................................................ytqronmmllllllkkllmllllllmmnqvz++....+xqmkjiihggfihfgfffggihhhhhhhhijjihiiijjkluxwtqpmkkjjiiiiikmlnllllnjmnlklkkjjiiiijiiihifdddeddecdedeeeeedcccddddddddddefhgfeeeeeeeeegjhgjfeeeeefggggiihgimrrnjcbbdg
(PID.TID 0000.0001) //    306 cbbbbcdcccccccccccccccccccccdddeefffggghhijjkkllmnou................................................................................................................ysrrpnmmllkkkkjkkkkkklllmmnpu+++......zqnlkjihggffffgfffgghhihhhhhhijmjhiiiijllxzyuqpomkjjiijkkkllmklmlimlllkkkkjiijiiiiiiigedeefefebeddddeeddccddddddddeedeeeeeeeeeeeefgjjhigeddddeggggikkjiinrrqhdbcee
(PID.TID 0000.0001) //    305 cbbcccccccccccccccccccccccccdddeeffffgghhijkkllmmnrz................................................................................................................zsrsqonmllljjjjjjjjkkllmnnory+........+rnlkjihggfffgnfffgggihhhiihhiikjiiiiiikpz++zqoolkjjjkkllkjjllmnkmmmllkkllkjjjiiiiiigeeeeegdebbedcccddddcdddddddddeeeeeeeeeeeeeefgijhiggfedddeghjkmnnliinrqmfdceff
(PID.TID 0000.0001) //    304 ccddccccccccccccccccccccccccdddeeffffgghhijkllmmnou+................................................................................................................zupurpnmmllkkjjjjjlllllmnoqty+........+uolkjihgggfffgffgggghhhiihhhiiiihhiijjkv+++zpmkkkjjklkklmlklmkmoonomlklmmlkkjiiiiihgfeeeegddbdedccddddddddddcddddeeeeeeeeeeeeeeeghhggggfeefhijkmnpqpmkjosokfbdehd
(PID.TID 0000.0001) //    303 cdedccccccccccccccccccccccccddeeeffffgghhijlmlmnopu+................................................................................................................+vppponmmllllkkjjllllmmnpqtx+.........+xomkjihhggffffffgggghiihhhhhiiiihhiijjkz+++yrolkkkjkkjkklllkloqpppnnnnmnmlkkjiiiiihggeffeddddeeddddddddddddccdddeeeeeeeeeeeeeeeffegggfeffghijkmoprrqollqroiebcehc
(PID.TID 0000.0001) //    302 ccdcdcccccccccccccccccccccccdddeefffgghhiijkllmnpqu..................................................................................................................xqopoonmllllllkkllmmmnprtx+++........+xqmkjiihgggffgffggghhihhhgghhiiihiiiiinz+++zyrokkjiiijkkkkjlmmppopnnmnmmmlkkkjiiiiihgeefdceeeeeeddddeeddeedcdddeefeeefeeeeeeeeeeefgeeefjgghijknpqrsrpnnqrohebcehd
(PID.TID 0000.0001) //    301 cccdcbccccccccccccccccccccccdddeefffgghhijjklmmoqsx.................................................................................................................+yqopnnmmllllllllllmnoqswyz++..........zqmkjiihgggffgffggghiihhggghhhhiiiiiijoz+++zspljjiiiikkkklmmllppommqnnljllkkkkihihijefffdeeeeeeeeeddeeeeccedddeeeeeeeeeeeeeeeeefgfeedegffgghijmprrrrqonqrohdbceif
(PID.TID 0000.0001) //    300 eccbbccccccccccccccccccccccccddeeeffggghijjklmnosw+.................................................................................................................+wpoqnnmmllllmmlllmnprvzz+++...........+umjiiihgggfffffggghhhgggggghhhiiiijjjmtz+zvqqlkiiiijkjjlkkkklonpmoponllkkkkljiiiijgeghfdeeeeeeeeeeeedccdeeeeeeeeeeeeeeeeeeeeeeeeeeeeefeeffgghlmorrrqpnqqnhdbcfig
(PID.TID 0000.0001) //    299 ccbbbccccccccccccccccccccccccdddeefghgghijklmmoqsx..................................................................................................................zuqpqonnpmllmnnnmmnprvz++.+............+xnjiihhgggfffffgggggggggggghhiiiijjjlorzzzxtpnmikjkljijolllkmnlmnoonlmkkkkkkiiiiihgfgiedeeeeeeeeeeecdeeedeeeeeeeeeeeeeeeeeeeeeeddeeeeeeeeeeehllnooqqpppplidbcgif
(PID.TID 0000.0001) //    298 dccbbcccccccccccccccccccccccccddeeefggghhijklnprwz.................................................................................................................+xtqpqpnnnmlmmosvywuuyz++............++.+wnjihhhgggfffffgggggghggggghiijiijklrvwxzzxwqonllkjijjnmmllllnmllnoqmjlnklkkiiihiggefhcefgeeeeeeedcefeeeeeeeeeeeeeeeeeeeeeeeeeeddddceeeeeedehiiiikopppppmhcbcfie
(PID.TID 0000.0001) //    297 cdcbbccccccccccccccccccccccccddgeeeffgihhijklnpsx.................................................................................................................+zvrqoqpnnmmmnpszz+z++++++............++++sljihhggggffffgipgggghgggghhiiilnmovyzzzzywunnnlkkiiiklkkllmnmmmloomlklkllkiiihhgggfgfdegieeeeeedehheeeeeeeeeeeeeeeeeeeeeeeeeedcccdededdeeeegeeefgjlnpqqmgcbcghb
(PID.TID 0000.0001) //    296 eecbbccbcccccccccccccccccccccddeeeeefgghhhiklnptz.................................................................................................................zxsrpptpnnnnpruz++++.+................+++yqljihhggggfffffhgggghhgggghhhiiloqu+++zzzywqllmliijkikkkkklnnnmmlnokmmkllkjiiihhghfggfeggheeeedegjfeeeeeeeeefeeeeeeeeeeddeeeddcbbeedcccdddeeedddefimnprpmgdbdhga
(PID.TID 0000.0001) //    295 dccccbbbbccccccccccccccccccccdddeeefggghijjklnpu+................................................................................................................+ytsqpptppoopsuyz++.....................++xqkihhggggggfffffffgggggggghhhijmnqvz++zywunmkkmkjkjkjjjklkllmnmmmknnlllllkijihgggfgffegghgedddeggfffeeeeeeefgffeeeeeeedddddecbbbdddcccedddddddeeefjlmqrrpgdbdgfa
(PID.TID 0000.0001) //    294 ccccbbbbbccccccccccccccccccccdddeeeffgghijklmory+..............................................................................................................++wusrqppqqqppptyzz++.....................++yqkhhggggfgffffffffhhgggggghhiijlmpwz+zywtlkklmnlkijjijkikkkllmnlmonkmmllkjjiigggghgfeeghhgedddfggggeeeeeeefgfgffeeeeeedddddccbbbbcccbcddddddeeeefhllmqsspgcbdhja
(PID.TID 0000.0001) //    293 ccccbbbbcccccccccccccccccccccddeeeeffgghijklnptz+.............................................................................................................+zwutsrqppprqqrrvz++++....................+++ypjhggffffffffffefgghgggggghhiiklnqxzzyxvpkllpmqlkkkjjkjjkimlmllpojlmlmlllkkiiggggigfefhhhfeddefggggeeeeeffffgffffeeeeeeddddcbcbccccbdddcccdeeeeegjllmqsspgcbdhgb
(PID.TID 0000.0001) //    292 cccbbbccccccccccccccccccccccdddeeeefffghhijlmptz+..........................................................................................................+++zvttsrqpoppqrqttyz+++.....................++ztlhggfffffffeeefffggggggggghhiilprsyzyvvslkllllokkklkkjikklmmklonklnnnnmlkkjjhgghhhffefghgfeddeggggfefeefffffffgffeeeeeeddddccccddddecdcdcceeeeefhkkmoqsrofcbdhfb
(PID.TID 0000.0001) //    291 dccbbbdddcccccccccccccccccccdddeegffffghhijkmouy+........................................................................................................+++zxutsrqqqppprqqqrtyz++.....................++yslihgffffffffeeeeefgggfggggghhhijnqsxzxtskkllmlllkkllkkjklmnlllnkhonnnnnmlkjkjggiihgfeefghgfedeggffeegeefffggfffgfeeeeeeedddddceeeeecccccccdeefgfghikmorsrlecbehbb
(PID.TID 0000.0001) //    290 dcccbbddccdcccccccccccccccccdddeefffffghhijklotyz......................................................................................................+++zxutrrqqqqqppprrrrrsvz++.....................+ztnkihggffffffeeeeefggggggggghhhiiiklqwyxtkjkklpkkkkllkkkkkmlklnkfqnnnnnnnnlmlljhiiiffgffggggeeeghgeefhfefgfgggfffgfeeeeeeedddddeeeeedccccdddeffggfgghjmorsrmeccegdb
(PID.TID 0000.0001) //    289 cdcbbbbccccccccccccccccccccccddddeeeffgghiiklnryz.....................................................................................................++zyutsrqqqqppqpopsrrrrsuz++.....................+ypljihggffffffeefgggffffggihhhhiiiijkowurkikkjjkkkkkkkklkkkjlmllpnnnnnnnnmmmlmkjiiigghhggghhgfefhheefheegggfghfffggfceeeeeddddddeeeddcccbcddeefggfefghjlorsrmecdegdc
(PID.TID 0000.0001) //    288 dccbbbbbdccccccccccccccccccccdddddeeffgghhiklmqxz+...................................................................................................++zyvtsrqqqppppppopturrrrtyz+.....................+xpkjhhggfffffeeefggffffgghhihhiijkllkmopoiiiiiiijkkkkkllkkjmmloqpnonnnnnmllkkkjjiihhjifhggihhggghgefheffggeggeeffgfbceeeeedddddeeeddcccbcdddeefffeefghjlossqjedeegde
(PID.TID 0000.0001) //    287 ccecbccbcbcccccccccccccccccccdddddeeeffghhijlnrxz+..................................................................................................+++zwtsrrqppppppppoprurrrrsuz+.....................+tnkihggffffffeeffffffffghhhhhiilmnnnnnoqliiiiiiiikkllkkkjikkmppponnnnnnnmlkkkjkkiijkihhihhigigggfefggggggegfeeefffe-deeeeedddddeeeddcbbbcddeeefffeffghjmqsrplfeeeged
(PID.TID 0000.0001) //    286 ddeffdccbbccccccccccccddcccccdddddeeeffgghijmruyzz+................................................................................................+++zxutsrrqpppppppooprwrrrrstxz+...................+yrmkihgfffffffffffffffffggghhikkmnponoppqjkjiiiiikkkkkkjjklmmnppoqnnnnnnnnlkklkkjjkkiijihgjghighhffggggggegfeffffeebbeeeeeeedddeeeedccccdcddeeefffffffhjnrrqnjeeeefdd
(PID.TID 0000.0001) //    285 edddcccccbcccccccccccddddccccdddddeeefffghikqtvyzz++..............................................................................................++++zwutsrqqppoooooopprsrrrrrtvz+...................+xpkihggffffffffffffffffgggghhjmostsqoopqplurnjikkkklkkkkkmnnnnpppoppnnnnnmlmlmlkjlkijiiigiihhhgggfhggggfegfegfffeee-edeeeeeedddeeeddcccddddeeeeffffffgilprrpmheeeefce
(PID.TID 0000.0001) //    284 dcccedcccccccccccccccdeeddcccddddeeeeffghknstuvyzzz++...........................................................................................+++++zyvtssrqpppooooonppprrrqrrtvy+...................zrljihgfffffffffffffffffggghhijmpuywsllnmnjkiijjiilllkklmmnnnnnoppopponnnnnmlnmkkllkjjkiigihhhhgffggggggegfefffffegececeeeeeeeedeeeddccdddeeeeeeefffffgjnrrqoljeeeedbe
(PID.TID 0000.0001) //    283 ccdddccccccccccccccccdeedddddddeeeeeefghnqvuuvwxyzzz+..........................................................................................+++++zywutsrrqppoooooonoppqqrqrrtvz++.................+zokihggffffffffeffffggfggghhhiiiovyyvokjhkgiijimptvqlkknnnnnnonopprpqpnnnnllnnlmmmlkklkiiiihhhgggggggggfggfffefffegfcbdeeeeeeeeeefdcccdddeeeeeeeeffffghkorrrpnmgfeeccd
(PID.TID 0000.0001) //    282 bcccdccccccccccccccccdeedddddddeeeeffknpssuuvvwxyzzz++........................................................................................+++++zzwutsrrqppooooooponnooqqqqrtvz++.................yxnjihggffffffffffffgnggghhhhhhiiiryxvojghgiiiiiijlpuwsrtwyvqpppnopqqrpomolmnllnnmllmllljiiihhggggggggggggggffeffefggcbdeeeeeeeeegedccddeeeeeeeeefffgggimprrsqnlfggeede
(PID.TID 0000.0001) //    281 cbcccccccccccccccccccdeeeefdeeeefefloqqqqrtuvvvwyyzzz+......................................................................................+++++zzzwutssrqqppoonooopponnorpqqrsuyz+.................+tljhggffffffffffffgkjgggijhhhhiiimyytlgggiiijijjiijjlnpsuuppoonnnoppoppmpommmonommnmllkkjihhhgggggggfggggggggfeeegggdcdeeeeeeeefgeddeeeeeeeeeeeffggggiimorrsrnleegeeee
(PID.TID 0000.0001) //    280 cccccccccccccccccccccddeeiofeeeefflsrqqrqqruuuvwxyzzz++......................................................................................++++zzwutsrrqqppoonnonooooomoqppqqrtx++................+yqlihggffffffffffffghghghhhhhhhiiir+ukhggihjjjjkjiiiiilmmnmnnnmnnnnnppnnnomlopnopnnnmlllkkihhhgggggfffggggghggfgegggfeddeeeefdcefeeeefeeeeeeeeeefgggggiilnprsqnjedeffhd
(PID.TID 0000.0001) //    279 ddcccccccccccccccecccddegiifffghllprrrrurpruttuvwxyzzz+.....................................................................................++++zzxvtssrqppoooonnnnoopoomnppppqrty+.................+unkihgffffffffffffffhihhiikjjihiilz+vjgggghiiiikjiiikjmkkmmmlmmmmnnnnnopmnnoppppponnmlllkkjihgggggffeggggggggffffggggfeeeeefecbdeeeeeeeeeeegeffeegggggijkmpqrpmhedffgkd
(PID.TID 0000.0001) //    278 cccccccccccccccccddcddegghhghhilnoprtsrpppqssstuvwyyzz++.....................................................................................+++zyvussrpooooooonnnnnooonmnopopqsvz+.................zsmjhggffffffffffffghkhhilnpqnjiiilqqihighhiiijijikjjjiikknlnmmmmmnlmonomompppppopnnnmlllkjiihgggggfgfhgggggggggggggggffeeeeedbbcdeeeeeeeeeffglfegigigiijkmpqpnliecfegjd
(PID.TID 0000.0001) //    277 bccccccccdcccccccddefgghhhhhijlmosqotolllmooprrsuvxyzzz+......................................................................................++zxvusspoooonnnnnnmnnnoonmnopqqrsz+.................+yqljhgfffffffffffffhojhijpvyyumjiiikigiggiihiiijijkijkiijklkmmlllllmnmlmnnnnnpnnpponnnmmlljijigihhggefgggggggggggfgggggfeeffecbbcdeeeddddeeffggeehgghghijknppomkjedeeghe
(PID.TID 0000.0001) //    276 bcccdccccccccccdeffghhhhhhiijkmnppnkjjijkllmnopqtuwxyzz++.....................................................................................++zwvtsronnnnnnnnnmmmmnnnmmnoprrsvz+.................+xqlihgfffffffffffffgihiikqx..xqkiiilggigghihhiiihijijijiikjkllllllmlllmmmmmnnnnnopomlnmmlkjjlkgjigffegggggggggggeegggggeefffdcbbddeeedddeeegffeefggggghijknppomkjedeegie
(PID.TID 0000.0001) //    275 bcccccccccccccddffghhhhhhijkkmnnnmkihhiijkklmnoprtvwyzzz+.....................................................................................++ywvusqnnnnnnmmmnwommnnmmnnnprtwz...................zvokiggffffffffffffgghhhijnsxzvojiijhghhhikijjiiijihhijijjijkkkkkkkllnmlmmnnmmnnnpppnmnnmlkjljjhihegffgghhggggggefghggggfffffdcbbdeeedddeeegefeeegggggghijlnppnmkkeeeeghf
(PID.TID 0000.0001) //    274 cccccccccccccddefffggghiijklmnnnnkhhhhhijjkklmnprsuwyzzz++....................................................................................++ywvuspmmmmmmmmmptpnmnmmlmnnoruz+..................+ztmkhgfffffffffffffghhhhiiknqqoljijhhgghighhhghhhihjhiiiiijkjjjkkjklmklmlmmmlmnmmnnponnlllkllkiihgggfhhhhhhggggfghgigggggfffedbbbcddeddeeeggfeeeggggggghijlnppnmkifeefggg
(PID.TID 0000.0001) //    273 ccccccddcccccdeeefffggijklmmnnnnnmihhhhiiijkklnoprtvxzzz+++....................................................................................+yxvtsommmmmmmmtvqpnnnmmlnnooqtz+..................+yrmjhggffffffffffffgihhhiiikkkljijlggggighihihijhhhiihigkihiiijkikkjlkkkklklnmnnnopnpmllkjkijjjhhhihiihhhhhgggggghiigggggggfedbbbcdeeeeeeggeeeefggggggghijlnponmkjfeefggg
(PID.TID 0000.0001) //    272 cccccbcddddccdeeefffghklnnoonnnnnmingghhiijjklmnoqsvxyzzz++....................................................................................+zxvurommlllllmnoonpnmmllnnnnpuz...................zvqljhgggffffffffegghihhiiiiiiiiiihgggghegggghihjghiihhijjiiiiijjkkjmkkjkkkmnnnnnnopmonmljjkjjhhhgiihihgiiihgggfggijigggggggfecbbcdeffeeeegeffeegggggggghijkmpnnnlifeeegef
(PID.TID 0000.0001) //    271 cccccbcddddddddeeeffgilnnoqpoooookhhgghhhiijkklmoprtwyzzzz++...................................................................................+zxvurommllllllmnmnnwmmmlnnnmnqz..................zyrnkihgggffffffffeeggiihiiiiiihhhhggggghgghihggfjghihihigigiihijiihkijjjkklljmnmmnmlmomkkknkihiigijihhhhiiihggffggkjhgggggggfedccdefgggeefefgfeggggggggghiiinonnnlhfedeeef
(PID.TID 0000.0001) //    270 ccccccdddddedddeeefgiknooopppspkhhhhhgghhiijjklmnopsvyzzzz++...................................................................................+zywuqonmmmlllmmmmmmmmmmknnmmmnw+.................+xpljihhggfefgfeefcfgggihiiiiiiihigggggffgghfifffigihijiihkggiihijijhhiijijkjklmnmmmnplnnkmlkkjhgjjkihhhhiiihigfgghhgggggggggffedeefggggefefggefggggggfgghhijnnnnnlgedddeee
(PID.TID 0000.0001) //    269 ccccdddddedeeeeeefghknooppppqqngggghggghhhijjkklmnpruyzzzz++....................................................................................zywuqpnmmmmmmmmmmmmmmmmkmmmmmmr+.................+voljihhgggfgggfegdffgghhhijiihihgggggfggegfhghhiijjjhiiijjghhggjihhghiiijkjjklllmlmpmopnmlkkkiiiikiihhghiihgheiggggggggggggggffeffghhgefefgfefggggggffgghhhjnnnnnjgfddeefe
(PID.TID 0000.0001) //    268 cccdddddddddeeeeffhjloppqqpppojgfiolhggghhijjkklnopsuxyzzz++...................................................................................++ywtqpnnmmmmmmmmmmmmmmmklmmmmmpy+................ztoljiiiggggghhegfdgffgghhiihiihggggggefegfggigffggiihhiighijihjkiiihiiiiiiijkkkkmnmnnnpmlkkjjjhijiiihghijigghhihgggggggggggggggffgghgeffgggeggggggggefggghilnnnnmhhfedeefe
(PID.TID 0000.0001) //    267 bccccccdddddeffffhijlopqqqqpqoiffinrhggghiijjkklnopsuwyzzzz+...................................................................................++yvsqpnnnnnnnmmmmlmmmmlklmmmmmorz...............+zsnlkiijhfggfgeefcdgfffgghhhijlggggfefffeefggfffhhghggjighiikihhhiijjjiiiijiikkjkljonnoolnkjjkijmiiiihiijjghhgggihgihgggggghhhhgggihgegggggefhgggggggefggghimnnnmmihfddeege
(PID.TID 0000.0001) //    266 bbcccdddddddefefghijlopqrsrppnjffggggggghhijjkklmoprtwyzzzz+...................................................................................++yvrqponnonnmmmmllmmmllkllllmmnqy...............+yrmkijijjggjfeeeeeddfgfggghhjfggggfefggfeeeeeefgfhgggiihhhjghfhhhihjiiiiiijikijkjjmnmomlnmklmklokjiijiikihiighiiihihghggggghhhhihhhgeggggggggfggggghffgggghionmnlkkifedeege
(PID.TID 0000.0001) //    265 bcdfdddddddddddfgghjlnpqstsqpnlhffhgfggghhiijkklmnoqsuxzzzz+...................................................................................++xurqqonnnnmmmmlllllllkjklllllmqx...............+xqljiiiiigigfeeeeeeedfffggggegggffgggggfeeeeeeggffgfgggggiifehhgihhiiiiiihjjjkjjlkmlnonnllmnlimljjijkikiiiiiijjihihiiigggggiihiihggfgggggggggggggffhefgggghionmmlkkifedeege
(PID.TID 0000.0001) //    264 ccdddddddddddddeeefjlnoqstttpomjgfffffgghhiijjkklmnoqtwyzzz+...................................................................................+zwurqqnnqommmmmlllllllkkjllllllox..............+zrokiiiighhgffeeedddeedgfffedgggffeeeeffeeeeeedefgegfeggggigghhhhhghiiiiiigijigijmllkjjmmomnlkmlkkjikkjjijkiiiiiiiiiiiihhghihhhihggfgggghhhgghhggggggefgggghimnnpnmlhfeefefe
(PID.TID 0000.0001) //    263 cccdeddddddccdddeefhkmoqsttssomkhffeffgghhhiijjkllmoqtwyzzz+...................................................................................+yvtqppmmnnmmllllllllllkkjjkkkkkmt..............+xokjiiihggggfeeeedeedeefgfecggggfffgeeeeeeeeeeeefgcefghhheihhggggggiihiiijkkiijmkjkkllmmoonllnllmkkkkjjkkjjiiiiiiiiiiiiiighihgihggghgggghhhghgggggggeeffggghjnppqpmmigeegfee
(PID.TID 0000.0001) //    262 cdcddddddddccccdeefhjmnrsttuspnjgfeeeffgghhhiiijklmnqsvxyzz++................................................................................++zxvsqqqmlmmmlllllkkkkkkkjjijkkjjkq+............++uljihgggfggfeeeeedeedddeeddfgggffeeeeeeeeedeeeeeffeeffghgfifhgggfhggghhiiiihikkjjljlklmnnopnmlkmlkkljkkkllkiiiiiiijjiiiiighiihhggghghgggghghhgggggggfgfgggghjmqrrpnnigeeegeg
(PID.TID 0000.0001) //    261 cccddddddddccccddefgkjlpsuvwtqnjffeeeffgghhhhhijkklnpsuxyzz++..............................................................................+++zywvrrrqmlklllkkkkkkkjjjjjiijjjjjknv............+zplihgffffffffeeeedddedddddegfeffeeeeeeedddddddeeeeeegeeegggfihgffhhhhghhhgiiiiilmjkkikllnonlkmlmmllljkkjklkjiijjiiiijiiiihjihhgggfhghgghhghgggggggifggggggggimqrsqomigfeefgf
(PID.TID 0000.0001) //    260 cdddddddddddccdddefflilosvvusonkgfeeeffgghhhhhhijklmoqswyzzz+...........................................................................++zzzzzxwsrrqqnlkllkkkkjjjjjiiiiiijjjjjkmry+.......++++ynkhggfffffffeeeeedcccdcccdgfeeefeeeeeedddddddddedeeefeeffgehfggefglhgigfhiiiiihiijillkmmnnlmollkllmkkkjjkkkijjiiiiiiiiiiiiiihgggfgiiihgiihhgggggggigggggggghjmqrtsonjgfeefgf
(PID.TID 0000.0001) //    259 ddddddddffeddddeeefgillptvvtrlkjgfeeefffggghhhhijjkmoprvyzzz++........................................................................+zzyyzzzywtssrqqolkkkjjijjiiiiiiiiiiijiiiklnqz++...++zz+zuligggfffeeeeeeeeddccbcdcbdeeeeedeeeddeeddddcdddedeeeegecefegehfffhhggfghhgghghgijljjlkmllnonlmjlmkllkkklkiijhijiiiiihhiiiiihgggggiiiiihiihhgggggghhggggggggijmpsutnnkgfeefgf
(PID.TID 0000.0001) //    258 dddddddddeeeeeeeefgikkmqsvxsojihgfeeefffggggghhiijkmnpsvyzzz++.......................................................................+zyyyyyzyxvtssrqqqmkjjjjiiiiihhhhhiiiiiiiijknqyz+++++zxxxupihggfffeeddddddddccbcdecdeeeedeedddddddddcccccdddeededfdeghcfhdfhfghgfghhggghiihkklllnmmmmnonlkmlmnlkkkkjkijjkjiiiiihiiiiihggghhiiiiiigiihhhhggggggfgggggggikmpstunnmggeefgg
(PID.TID 0000.0001) //    257 ddddddddddeeeeeffgiklnpstuvslihgfffeeffffggggghhijkmnpsvyzzzz+......................................................................++zyyyyyywwvtssrrrqnkjijiiiihhhhhhhhiiiiiiijloptyz++zzvtutrpjhgfffeeeddddddddcccccddeddddeedddddddddccccccddcedddedeefiehgehgegfegghggghkiijlkmlmllhnomoolmmlnmllkkjjjkkkjjiijkiiiiihhghhhhiiiiiiihiihhhhgggggghgggggggiknqrttnnlggefggg
(PID.TID 0000.0001) //    256 degddddccddeefgihikmnoquuuuuohgfeffeeeffffgggghhijklnqsvyzzzz+......................................................................++zyxxxxwwwvtssqrrrnjihiiiihhhhhhhhhhhhhhiiiknpquxzzyvtrqqrnkigffgfeeddddddddcccbeddddccddddddddcccccccccccdccccbcfefehfgcggfffffggghgikjjkkllklhhlonnnllmlmmnnmmmlkkkkjikkjiiiiiiihhgiihghiijiiihgihhhhhhhiggghgggggggilortsromjhgfgggg
(PID.TID 0000.0001) //    255 ddeddfedddeeehknmjlnprrrssvrjfeeeefffffffffggghhijklmprvyyzzz+.......................................................................+zxxxwwwwwutssqrrqjhggghhhggggghhhhhhhhhhijlmnoruwxusrqpponnkhffffeeddddddddccbcdddcccccddddcddddccccccdbbdcbdcccfhcffehfggeghggggghilijiiknkhlkllmkllkmnpmmnnonnnmmlijljkkjkiiiiihhiihghiiiiiihhiihhhhhhhhghfggggggghilorqrqnkgggfgggg
(PID.TID 0000.0001) //    254 ddddegfddeeeegkonmmnqrrrnklhfddeeeffffffffffggghijklmoquxyyzzz+......................................................................+yxxxwvvvutttsrsrnhggggggggggggghhhhhhhhhhjklmoqsttsssqqqppomifffeeeddddddddcccccccccccccddddeeeeccccccbbcccddbedddeeefghggghhhkigghhikkjllhimmlmkkllkjlnmopmmnnnnnnlklnmkkkjjiiiihhhgghiihiiiihiiihhhhhggggggggggggghjmoqqspnjgggggggg
(PID.TID 0000.0001) //    253 dffdeffeeffffhlopoopnpljmfeeddddeffffgfffffffgghhijkmoqtwyyzzz+......................................................................+xxwwvuuuttttsrsrlggfggfffggggggghhhhhhhhhijjlnqrtttustsrqqpnjggffeeddddddddccccccccbcccccdddeeeedddcbbbbbcfecdegecfeeiggghikiihjiijkmommkgonlllkjkkijmmllnonmmmnnnnlmklmmjijjjiihhggggiihhiiijhiiihhhhhiigggggggggghhjmopstplihggggggg
(PID.TID 0000.0001) //    252 eeeeefffffffgilnppppjhhigeeeeddeefeeffffffffffgghijklmpruwyyzz+......................................................................zwwvvuuutttsssssrmgfggffffffggggggghhhhhhhiijkpttuuutwvtsqrrqmijgfeedddddddddccccccbcccccddddeeeedddcbabdcgcccdhgdcghghiekjiiilkjlhjlmlkjhjnlkkijjlkillllklmnnmmpnmlmnmnljijjjjjiiggghiihhhiiiiiiiiihhiiigghhhgggggghhjlnottnjhgggggggg
(PID.TID 0000.0001) //    251 deeeffggfffghjmnppokhffffefffedeeeeeffffffffffgghhijkmoqsuxyyzz+....................................................................+yvvuuutttttsssssrogggffffffffgggggggggghhhhhijptsstsstwvtrrrpnljhgfedddddddddcccccccccccdddedddeeeddebcdbcgcddcfefdfffjfiijjjllmpkkmlmghihjlljiijkjikllllkklmnnokmmnnnnlkjkkkjjjiiggiihgghiiiiiiiiiiiiiiihhhhgggggghhhikmqtsniggggggggg
(PID.TID 0000.0001) //    250 deefffggggghilooomjhfefffffffefeeeeeeefffffffffgghijklnprtvwyzz+....................................................................+wuuuttttttssrsstrngffffffffffggggggggggghhhhhjpsrrqrsuutsrrqqoonkgfedddddccddcccccccccdddddddddeeccccddbaegfgcbfedgkeiiijllklmommkffhhillkjljiiijjkkijlkkkkkllkikkmnpnnmjkkkkkjjiigiihgghihiiiiiiiiiiiiihghhhggggghhhhiknrspkgggggggggg
(PID.TID 0000.0001) //    249 eefffffggggikmomkhffeeeefffhieeeeeeeeheffffffffgghhiklnprsuwyzz++..................................................................+zwuttttttsssrrsssrjgffeffffffffgggggggggghhhhikprqprqrsssqqrqqqponjffedddddcddcccbccccdddddeddddddcccddbbbeeggcdhcfiiekijllijnigiiggkmoljhjkiiiiiijkiijllkkkkkjiijlommonjkkkkkkkjjiijhgghiigijiiiiiiiiiihhhhhggggghhhhhikoqpligggggggggg
(PID.TID 0000.0001) //    248 eeffffggghhilnnnjgfeeeeeffffeeeeeeeeffeggffffffgghhjkmnoqtvwyzz+++.................................................................+yvttttssssrrqrsssqhgffefffffffffgggggggggggghjmqqppoqqqppoooppqqponggfeeddddddccccccddddddeeeeeddcccdcedbcefggdfcdighgmlijhhkmlkjhilljkihikiiiiiiikkiiikkkjkkiijklnloomjlkkklkkkjjjkighiiiiiiiiiiiiiiiiihhhhhgggghhhhhhiknnlkhgghhhhhhhh
(PID.TID 0000.0001) //    247 fffffggghhijmmlomfeeeeeeeffeeeeeeeeeeeeffffffffgghijklmoqtwxzzz++++................................................................+xusssssssrrqqrssrngffeefffffffffffggggggggghjkpqprqqnoonnnmmnoprqpnjggeededddcccccddddddeeeeeeecdcdbbbddecegfffhhjjmljlihhmlnmllgiiljmjggiihhhiiikjiiiiiiikjiikkkllmnnikmmlllkkkjjkkghijiiiiiiiiiiiiiiiihhhhhgghhhhhhhhikllkihiiiiihhhhh
(PID.TID 0000.0001) //    246 fgggggghhiijmnjlledddeeeeffeeeeeeeeeeeeeffffffgghhijklnoqsvyzzz+++++..............................................................+zwtrrssssrqpoprssqkgeeeeefffffffffffggggggggijkppqqpnnnnmmnmmnnoppomkfgfededddddddeeeeeeeeeeeeeeedccbbdegfcdgieiljfjmklggkklkkjhgfhihhihghhhhhhiiijiiiiiiikkjijkkklllljmnlklllkkkjkkikijjjiiiiiiiiiiiiiihhhhhhhhhhhhhhhhijllljjjjjjiiiiii
(PID.TID 0000.0001) //    245 gggggghhikllnopgedccdeeeeffeeeeeeeeeeeeeeeffffghhijjkmnpqsvyzzz++++++............................................................++yusrqrrrrqpoprrssohfeeeeeeffffffffffffffffghijkoppqonnnnmmmmmnnnoonmkhefeedddeeeeeeeeeeeeeeeeedcedcdcdefggcdghehmgijmjglkjijjihfeegggfgggihggghiiiiiiihiiijijiijjjkjjlmlommnmllkjjklkkjjjiiiiiiiiiiiiiihhhhhhhhhhhhhhhhhijlmmmlkkkkjjiiii
(PID.TID 0000.0001) //    244 ggggghhijknnnopgcbbcdeeeeeeeeeeeeeeeeeeeeeeffghhiijklmnoqsuxyzzzzzzz++..........................................................++zwtsrqpqrqqpqrrssrmhedeeeeeeeefffffffffffgghhjmnppqponnnoonmmmnnnnnnkjifeeeddeeeeffffffeeeeeedbdefedbcegegdddheeikfjgpjhlihjhigggeghghggggihggghhhhiiigiiiihijiiiijijkklmnnlmnmljklkkkkjjiiiiiiiiiiiiiiihhhhhhhhhhhhhhhhhikmopqponmlkkjjkk
(PID.TID 0000.0001) //    243 gggghhhikmonoolgcbbcdeeeeeeeeeeeeddeeeeeeeeffhhiiijklmnopsuxyzzzzzzzz+.........................................................++zwutsrpppppppqrssrqmhedeeeeeeeeffffffffffgghiiknppppooooqqpponnnnnnmljiifeeeeeeeeeehhgfgfeeeeeccfggedddfhegggghfdilcelmkghhefghegegigggfffgigggghhhghhgiiiihhiiiiijjkllllmmonnnmjkklnkkjijiiiiiiiiiiiiiiiihhhhhhhhhhhhhhhhikmoqssrpnmllllll
(PID.TID 0000.0001) //    242 gghiijijkmqpqqmiecccdddeeeeeddddddddeeeeeeffghhiiijklmnopruxyyzzzzzzz+........................................................++zyvutsqpooooooprrrrqnjeeeeeeeeeeefffffgfggghijjknppppoooptsrqpnmmmmlkjhgifeeeeeeeeeefffffeeeefddefffeedcifefdihigihlfjlljflhefejdefigegfefghhgggghiggggggiiihiiiiijijjkljlllmmnlkkklllkkjlkjiiiiiiiiiiiiiiiiiihhhhiiihhhhhhiknprttsqommnnnno
(PID.TID 0000.0001) //    241 fgikklkkkkoppttqjecdddddeeedddddddddddeeeeffgghhiijklmnopqtwyyyzzzzzzz+.......................................................+yxwtttsqpoooooppqrrrqmleeeeeeeeeeefffffggggggijkmpqpppoppqstrqpnmmlljihgggfgeegeeeeefffghffffgieefegfffecifggciikhlhphmjjfflffhffdegfeefefgghggggghhgggggiighiiiiiiiiiiklkijmmnmlmlmmllklmlkimjiiiiiiiiiiiiiiiiiiiiiiiihhiiijlnprssrqpnnoooop
(PID.TID 0000.0001) //    240 ghjmonlllljptvwtkeddeeedddddddddddddddeeeeefgghhhijjlmmnoqsvxyyzzzzzzz+......................................................+ywvusqrrqpooooopqrrrrqojeeeeeeeeeeeefffffffgggijlprqpppppqrstrqpommljhggggfffeefeeeeefffffefgiigfgghgheeecgehgcgiiikkohkhgfggfhffeefeeffegggggggggihggggghhfihiiiiiiiiiiijjjiikllnnnnnlmmllkklkiijkiiiiiiiiiiiiighiiiiiiiiiiijmpopqrrqpppqqppq
(PID.TID 0000.0001) //    239 hiloqqrkjhhmqvurheeeeeeedddddddddddddeeeeeeffghhhijjklmnnpruvxyzzzzzzzz.....................................................+zwspppooooooooooprrssrrojeeeeeeeeeeeefffffggggiijorrppppqqrsttsqponnmjhgffffffeeeeeeefffeeeegiighhfihggecddgfifdhmkkiokggifgiejgefegeeggggggggggggifhggggghhgghhhiiiijjijkkkkijilmmnnnmnnmllmllijjkjiiiiiiiiiiiiihhiiiiiiiiiiiknonoqrrrqqstsrrr
(PID.TID 0000.0001) //    238 iijmqplhgghkosriedeeeeedddddddeedddddeeeeeeefgghhijjklmnnoprtuwyzzzzzzz+....................................................+uqoonnnnmnnnnoopprrssrrnideeeeeeeeeeeeffffgggikjkosrppppqqrsssrqpponmiggffffffeeeieeefeeeeehihghihegffgfddfiilhelnlglnhihhigehgehfeeefgfgfggggggegfhgggggghggihihihgikhiijkjikljmlmnnlmmmmlllllkkkkjjiiiiiiiiiiiiiiiiiiiiiiiiiknnnqsrssrrssrqrr
(PID.TID 0000.0001) //    237 lmkjjhgggginqrpgddeeeeedddddddeeeeeeeeeeeeeeefgghijjklmnooopqrtxyzzzzzzz+..................................................+vqoonmmmmmmmmnnoopqqqponjgdddeeeeeeeeeeffffgfgjoklrsrqpppqqqrrrrqpomljhggfffffeeeejfeffeeeeiihgihifeghgggfeiikmgenjhknkigkghheiefgeeegfeeeefgfeffffhggggghhfgghghihiihhihiiiikjjkllmmnmmmmmmlllklmkkjjjiihhiiiiiiiiiiiiiiiiiiiikmnpsuuutsrqpppml
(PID.TID 0000.0001) //    236 lmjhggggiiijrrlfeeeeeeedddddddeeeeefffffeeeefffghiijkllmmnoppqtvyyzzzzzz+.................................................+wqponmmmmmmmmmmnooopponljheddddeeeeeeeeeeffggfgiikorsrqqqqqqrrrqqpomjiigggfffffffegheeeeeeegigghgfgefffgggghjjmniikggpnjidjfhcehfgeeegfegfeeggegfefggggggggggggghhiiiiiiiiiihkjkkllmkkmmmmmmmmmllllkkkjjjiihiiiiiiijiiiiiiiiiiijkloqsuuutsqommnih
(PID.TID 0000.0001) //    235 kiggggghjiiqrogffeeeeedddddddeeedefhffffeeeeeffgghijkklllnnopqtvxyyyzzzzz+...............................................+xronnnmmllllllmmnnoooonlkmkfddddeeeeeeeeeeffggghiiloqrrqqqrrrsrrppomkiiihgggfgggfffeffffeffgiigigeeggehgfidigmlnnipmghlkkkcffgcigefeefgegeeefefgffgfgggggggghgghghhghiiiiiiijkiiklkjjlmllmmmmnnnmllkkkkkjjiiiiiiiiijjiiiiiiiiiiikkmortuuutsomkkkji
(PID.TID 0000.0001) //    234 iggghjggiorqlhffffeeeedddddddeeeefnsgfffeeeeeffghhijjklllmmnoqsuwxyyzzzzz++............................................+zvrponmmllllllllmmnnnopppponkgeedddeeeeeeeeeefffgiijlprrrrrrrrsssrponnkjjjiihhgghggggffffffffgiggfeffhgghffjfjhjknmeqkghkhngcdjfdhfeeeeefgeffeegfefgffgggggghhggghhggggfgghiijkjijkkkkklllmnnnnoonnllmmkkkjjjiiiiiiijjjiijkiiiiiiklkmprtuutrrolkkkji
(PID.TID 0000.0001) //    233 hggghiggipqpiffffeeeeedddddddeeeefiigffeeeeeeffghhiijkklllmnopqsuwyyzzzzzz+...........................................+ztpoonmlkkkkkkkllmmnnoprrrrqplgeedddeeeddeeeeeeffgiiijkprsssssssssrponnlkkkjjjiiiiihhhggggggeeegefegihkgfheiihkfjinleoifihhkicdkdgfeefeeeeeffeegfeffgggffgghhgghggiggfefhiiiiihhijkkkkklllmnooooonnnmlllkkkkjjiiiiijjkkjijljiiiiikmmlnpsttsrqpnlkkjii
(PID.TID 0000.0001) //    232 ooigggghjqrkgffffeeeeeddddddddeeeffffeeeeeeeeffghhiijkkmmllmnoopsvxyzzzzzz+..........................................+zvqonnmlkkkkkkkkkllmnpqsstrrrpjfedeedeedddeeeeeeffgiiiikostuttttttsrpononmlkkkkjjjjiiiiihgggggffgeffhihjfhigkhkihojnlfmhfighijcdhdhefgfeeeeeeefgeehgfggeghhggggggggggefhihiiiiggiijkkkkkllmnoooooonnnmllkkkjkjjjiiijjkkkjiklkkmomilnmlnqstsrpomlkkjjii
(PID.TID 0000.0001) //    231 srlhggghmrrifffffeeeeeeeddddddeeeeeeeeeeeeeeeefgghhijkkmlkllmnnortvxyzzzzz+.........................................++wqonnmlkkkkkkkkkkklnnprtutsrroifeddedeedddedeeeeefghhiilqtuvvuuutttrponnoomlkkkkkjjjiiiihgggggcgeeeifigkgiiimgjihmgmkgohfgghjhcgefhfffeeeeeeeffceggeggegggggggggggggghihghiihhghhijkkkjkllmnnoooppoonmlllkkkkkkjjjjkkkkkjklqqpnlkilnllnqsssqpnlkkkjiii
(PID.TID 0000.0001) //    230 rrlhgggirupjffffeeeeeeeedddddeeeeeeeeeeeeeeeeeffgghiijkkkjjklmmnpqsvyzzzz++........................................+zwqnnmmkkkkkkkkjjjkklnprtuuutsrohfeddddddddddddddeefgghhikqtvvwwvvuutrqonnoomlkkkkjjjjiiihhhghigcfeeffhhiihjjkmiilhpgliilfggghggcgdgeeefefffefgeegfefggffgggggggggggegggggghihigggiijiiiiklllmnnnnopoonmllkkkkkkkkkkkkkkkkkknnnmllljlmllnpqqqpomlkkkjiii
(PID.TID 0000.0001) //    229 rrjggfglstplhfffeeejgeeedddddeeeeeeeedddeeeeeefffgghijjjjijjkllmnoptwyzzz+........................................+zuqnmllkkkkkkjjjjjkkmmnqsttuutsrohfedddddddddddddddeefgghikqtvxxwwvvutsqonnonlkkkjjjjiiiihhhhhhhfdeeeeeigkiikklljjkhmgmhjheggghgeefegeffffgfegfeggeegggeefgggggggggffggggghhiihgghhiiiiiimlkkllmmnnnoponmllkkkkkkkkkkkkkkkkkkloolllkkkklnnooponnmlkkkkiii
(PID.TID 0000.0001) //    228 mkhgfffhhiomiggfeeehgeeedddddddddddddddddeeeeeffffgghhiiiiijjkklmnorvyyyz+......................................++zupnmlkkkkkkkjjjjjkklnoortuuuutsrpjeeddddeddddddddddeeffghimruwyxxwvvutsqponnmkkkjjiiiiiihhhhhhhhfceeegehgihinmlmlmjkkgmjiffgggggcfdffeffgfefgefgfeefgfefffgggggggfffggggghggiigggiiiiiiiljkkllmmmnnoooonnmlllllkkkkkkklmkkkkkklolmqlkkklnnnnnnnmllkkkjiii
(PID.TID 0000.0001) //    227 ihggfffffgjjhggfeeeeeeedddddddddddddddddeeeeeefffffgghhhhhhiijjkklnpswxxzz+....................................+zvtpmllkkkkjjjjjjjjkkknpporrtuttsrqlfeddddddddddddddddeeffghinqtvxxxxwwvusqponnmkkjjiiiiihhhhhhhhhhfdefhjgigigjqllolmipigmihgfgggefcedgeeegeeffegfeeegfeggfffggggggffgggggghhgggfggiiiiiiikjjklllllmmnoooonnmmllllklkklkkkkkkkkkkklmnmkkkkmnnnnnmllllkkjjiii
(PID.TID 0000.0001) //    226 gggffffffgggffffeeeeeeddddddddddddddddddeeeeeeefffffgggghhhhhiijjlloqsvwzz++................................+++zwqomkkkkjjjjjjjjjjkkkmprqpprtttssrpkedddddddddddddeedddeegghjnpruuvwxwwvusqponnkkjjiiiihhhhhhhhhhhihdegkijkhjimrlmnmmjljgmggggggefccdfeeefffgefggfgfffeggggffggggggggggggghhigfeggiiiiiiiikikkklllllmmnooonnmmmmllkkkkkkkkkkkkkkkkkllkkkkklmnopomkkkkkkjjiii
(PID.TID 0000.0001) //    225 ggffffffffffffffeeeedddddccdddddddddddddeeeeeeeeffffggggggghhhiiijlnoprwzzz+............................++++++zvrnlkjjjjjjiiiiiiijkknoqrqppprrrqqqpjedddddddddddddeeddddegghjmoprrtvwwvvurqppomlkiiiiiiiiiihhhhhhhiiefikgljimnpskjomnkkihlegggheegbdeeeeeefgfggfggffefgggggfffgfggggggggghhiggfgghiiigiigjjikkkllklllmnnooonnonmmllkkkkkkkkkkkkkkkkkkkkkkklmoppolkkkkkjiiiii
(PID.TID 0000.0001) //    224 ggfffffffffffffeeeedddddccccdddddddddddddeeeeeeeefffffggggggghhhiijklmptyzz+++............++++++++++.+++++zzzxsplkjjijiiiiiiiiiiijlnoprtrqpppppppomjedddddddddddddeddeeeefghikmopqsuwvvwurqpponlkiiiiiiiiihhhhhhhhhkefjkfojjnnoqjmrlnmjghiegggfeedcdeeeeeeegggggggfefgggggfffffffggggggghhihghgghhiihiighiijkkkkkllllmnoooponnnnnlllkkkkkkkkkkkkkkkkkkkkkklmoonkkkjjjjiiiiii
(PID.TID 0000.0001) //    223 gfffffffffffffeeeeedddddcccccddddddddddddeeeeeefeefffffggggggggghhijkmnqvyz++++......+++++++++++++++++++zzyxspmkjjiiiiiiiiiiiiiiijmopprrqppoooooomiheddddddddddddeeeeeeeeeggikqqpqstttuutqpponnljiiiiiiijiihhhhhhhgkfiljhoilpllnnoqlmnigjheggfeffccdefffedefggggggggggggggggggffffggggghhiihghhhiiiiiihgiiijkkkjkkkklmonoooponnnmlllkkkkkkkkkkkkkkkkkkkkkklmnnkkjjiiiiiiiiii
(PID.TID 0000.0001) //    222 fffffffffffeeeeeeddddddccccccdddddddddddddeeeeefeefffffffggggggghhijkloqrwyyz+++..+++++++++++++++++++zyxutsonjjiiiiiiihhhhhhhhiiijlmoqqpoooooooookgeddddddcccddddeeeeeeeeeffgkrrqttsrrssrqpoomkjjjjjjijiiiihhhiiihgkgjlkhmimlloomnohllhfjheggeegdbceffffedeffffgggiggggggggggggffggggghhiiihhhhiiggiihhiiiijkkikkjklnmmnnopnnnnnllkkkkmmnnmkkkkkkkkkkkkkkkklmlkjjiiiiiiiiiii
(PID.TID 0000.0001) //    221 fffffffffeeeeeeddddddddcccccddddddddddddddeeeeeeeeeffhfffffffgggghhikmnoprvxzz+++++++++++++++++zzzyyxwuspmlkjihihhhhhhhhhgggghhiiiilnopnmnoonnnnmjfdddddcccccddddeeddddeffffgimopprrqqqrqpoonljjjjjjjjkjiiiiiiiiiigkejmllohklmqokolhllgekfhggefeccdefffeceeffffghigggggggggggggggggggghhiiihhhihgghihhiigiiijikkiiilmnnnnnppnpnmlkkllloppomkikkkkkkkkkkkkkkllkjjjiiiiiiiiiii
(PID.TID 0000.0001) //    220 fffffffeeeeeeddddddddddccccddddddddddddddddeeeeeeeeffffffffffffggghijlmnnoqrxz+++++++z++++++zzyxwvuutspliiihhggghhhhhgggggggghhhiiijmnolkkmnnmlkkifddccccccccddddddddedegggghimonprpnopoooonloijjjjijjiiiiiiiiiiiihifkonnnimmmpminjhllgfiefggefdbdeffffeeeeffgfgiggggggggggggggggggggghiiighhhhgghigiigghiiiikkiiijmnnnnnopppnmllklmmnoonmkjkkkkkkkkkkkkkkkkkjjjiiiiiiiiiiii
(PID.TID 0000.0001) //    219 fffffeeeeeeeddddddddddddddddddddddddddddddddeeeeeeeefffffffffffffgghijllmmnqvyz++++++z+++++zywutttssrnjihggggggggggggggggggggghhiiiijjjkkkkkkkkjjiedcccccccccdddddddeedeefgghijmmmnmnnnnnnmllmjjjjiijigijkiiiiijkikhgmqjjmholkpkimjikjghieefgeedeeefffeeeeeffgggghigggggggggggggggggghhihgghhhhhhgghghiiiiiijjijijllnnnmnoopnnmmmnnnnnnnmlikkkkkkkkkkkkkkjjjjjjjjjjiiiiiiiii
(PID.TID 0000.0001) //    218 eeeeeeeeeeedddddddddddddddddddeeeeddddddddddeeeeeeeeeeeffffffffffgghiijjlmnpqtxz++++++++++zzvttsrrqnkgggggggggggggggggggggggggghhiiiiijjkkkkkkjihgdcbbbcccccddddddddedeeefgghijllmmnnnnnmmllllijkkhjigiljjiijjkkiimghmqgpohpkkojjlijhhfhieeeeeeeeefeeeeeeeeegggggiiggggggggggggghhgggggggghhhhghgghfhhiiiiijiijkiklmnnnnmomlnnnnnnooooonlikkkkkkkjjjjjjjjjjjjjjjjjjjjjjiiiii
(PID.TID 0000.0001) //    217 eeeeeeeeeddddddddddddddddddddeeeeeeddddddddddeeeeeeeeeeeffffeffffggghihijlmmmnswy++++++++zzxutsrqomjggfgggggggggggggggggggggggghhiiiiijjkkkkkkjifeccbbbbcccdddddedeeeefeeegghhillmnoononmlkkkjikkjikhjkjkkjkkkkjkkpgimmfpoiojkojkkgigiehheeeeeeeeeeeeeeeeeeefgfggggggggggggggggggggggggggghhhghhgfghhhiiiiiiijkkiklmmnnnmllmnooooopppponjjkkkkkkjjjjjjjjjjjjjjjjjjjjjjjjjjii
(PID.TID 0000.0001) //    216 eeeeeeddddddddddddddddddddeeeeeffeeeddddddddedeeeeeeeeeeefgiffffffgghiihikkllloquy+++++++zywusrroligffgggggghhhgggggggggggggggghhiiiiiijkkkkkkifedcbbbbbcccddddeedeeeeeeeefggghilmmnnopnmkkkkijkkikljjklkjkkkkkklnqfklkgnlkminmikigigjehheeeeeeeeeeeeeeeeeeeffffggggggggggggggggggggggghhhhhhhgffggihhiiiiihijkkjklllnmlmmnopppppppqqonljkkkkkkkjjjjjjjjjjjjjjjjjjjjjjjjjjjj
(PID.TID 0000.0001) //    215 eeeeeedddddddddddddddddddddddeegfffeedeeeddddedeeffeeeeeefffffffffgggghhhijjkklnqvy+++++zxxusrpspjgffghjhghiillggggggggfgggggghhiiiiiiijjkkkkjiedbbbabbbcccddddeefffffefeeffghgimonnpponlkkkjijkjimjjkkkkkklllllmosfosnioklmhmkgkhhjhiffgedeeeeeeeeeeeeeeeefffffgggggggggggggggggggggghghhhhhghggggghhhiiiihijkjkkkkkkllnnoppppqppppqonkkkkkkjjkkjjjjjjjjjjjjjjjjjjjjjjjjjjj
(PID.TID 0000.0001) //    214 eeeeeeddddddddddddddddddddddddefgghfeeeeedddeedeefeeeeeeeeeeeeefffggggghhiniiijlmqvyz+zxwusqoljiifffggijkmnmkjihihgggggggggggghiiiiiiiijjjkkjieeecbbabbbccddddeefgggfeeeeefgghhjmmnqrpomkkjkkjkkjkmiklllmolmmnmnnpsbrrnjnjllhmigihhggjfffeedeeeeeeedddeeeeeeffffffgggggggggggggggggggghhhhhgghhgggghhiiiiihiiiijklljkmmnnnoppppppppponlkkkkkkkkkkjjjjjjjjjjjjjjjjjjjjjjjjjjj
(PID.TID 0000.0001) //    213 efheeedddddddddddddddddddddccddefffeeeedddddeeedeeeeeeeeeeeeeeeffffffgghhhjikjiimqtwxxuronppkiedeeegghjklnonljiiiihgghhggggghhhiiiiiiiijjjkkjheddcbbabbccddedeeffgggfeeeeefgghikmnopppnlkikkijlmklljlmnnnnmnoooooptdpqmilikijkhhigihhiffeeedddeeeeddeeeeeeeeeffffffggggggggfggggggggghhhhhgghhgggghiiiiijjiiiiijklkjklmnnoppqppppppnmlkkkkkkkkkkkkkkjjjjjjjjjjjjjjjjjjjjjjjj
(PID.TID 0000.0001) //    212 eeeeeeeeddddddddddddddddddccccddeeeeeeeeedddeeddddedddddeeeeeeffffffgkhggggklphhmorstplkkkkifdcccdegikkknnnnmmmjikkiiilhggghhhhiiiiiiiiikjjkhedcccbbbbbccdedcfgfgffefegeefhghiilnnooonlkkklkiimnkmllmnpnnmnonoooopndopkklikijkgihgigggeeeeddeddddddddddddeeeeeeffffggggggggggggggggghhhhhgghhhhggghiiiikkjhhiijjkjkllmmnopprrrqqponlllkkkkkkkkkkkkkkkkjjjjjjjjjjjjjjjjjjjjjj
(PID.TID 0000.0001) //    211 eeeeeeeeddddddddddddddddddcccccddeeeeeeeeeeddedddddddddddeeeeeffffffhihgggnjifghkmlikijjihjkfdbbcdefjkklnnnnnnnmlmkjhilhgghhhhhiiiiiiiiijijkhddccbbbbbbbcdeeeegegeefgggefihghiknmnppnlkkjklkiloplnmnnppoprrssqppoolhpnklikkhjjgighiggfeeeeddddddddddddddddeeeeeeeeffgggggggggggggggghhhhhhhhhgggggiiihhhhiiiiijkkjlllmmmnstssrrsqomkkkkkkkkkkkkkkkkkkkkkkkkkkjjjjjjjjjmjjjjj
(PID.TID 0000.0001) //    210 eeeeeeedddddddddddddddddddccccccddddddddeeeddddddddddddddeeeefffggffggggfglhfffghhhgghhhffijfdcccdefikkkmnnnnmllllkjhgggghhhhhhhiiiiiiiiiikkgdddbbbcbbbcdeedefgeffegggfhhjihijllmnpnmkkkjklkhlpnmnppqqoopqqrrrtqnnlinjmjkkhhlhhhghgggedddddddddddddddddddddddeeeeeefgggggggggggggggghhhhhhhhhgghhhihhhhhhiiiijjkkkkllmmoqvutttrtqolkkkkkkkkkkkkkkkkkkkkkkkkkkkkjjjkkjkkjjjjj
(PID.TID 0000.0001) //    209 eeeeeeddddddddddddddddddccccccccccddddddeedddddddddddddddeeeffffigfgggggffffffffggghifeeeeeeeeddddefhjjklnnnnlnmmllkiggghhihhhhhhiiiiiijkmmkfefdaabdbbbcdedeggefgegggggikiiijkmnnqpmlkkjjkmijnonoppqqpmoqtrrrpponojjllkkkhgilgggggggfdddddddddddcccccdddddddddddeeeefgggfggggggggggghhhhhhhhhgghhhhhhhghhiiiijjkkkllmmnqxttstttrpmkkkkkkkkkkkkkkkkkkkkkkkkkkkkkkjkkjkkkjjjjj
(PID.TID 0000.0001) //    208 eeeeeeddddddddddddddddccccccccccccccdddddddddcccdedddddddeffglmfgffffffffffffeffghfffgeeedeeeeeddeefghikmnnnnnnnnmkkhgghiiiiihhihhiiihimlmljfegeabdcbbcdeeeeeeegfgggghjkjiiiklnoprmlkkkikmkinppprqoooorsrrqronmnnnikikiihihjiggggggifddddddddddcccccccccccdddddddeeefggegggggggggggghhhhhhhhhhhhhhhhhhgiiiiijjjkkkllmnoqtttrssstrllkkkkkkkkkkkkkkkkkkkkkkkkkkkkkkkjjkkkkkkjj
(PID.TID 0000.0001) //    207 eeeeeeddddddddddddcccccccccccccccccccddddddccccccdddddeedejgjkfffffffffffffffffgfeeeeeeeedddddeddeefghikmnnnnnoonmjigghiiiiiiiiiihihhijklkigeegdacdbbcdegdeeeeeeegghhhkjiiiiklnoqqmkklllnmljosqrqmlsrrsrqnmonlmnlkikjkjjhiijhhggggggeddddddddddccccccccccccddddddeeefggfgggggggggggghhhhhhhhhhhggghghhhigiiijjjjkklmnoprvvtrrttomllllkkkkkkkkkkkkkkkkkkkkkkkkkkkkijjkkkkkkkk
(PID.TID 0000.0001) //    206 eeeeeeddddddddddccccccccccccccccccccccccccccccccdddddekqigjgfgffeffffffffffeeffgededdeefeedddddddefgiiklmnnnnnmnljihhihiiihhhiiiiiihhhgjjigfeeebbbbbbceefdeeddeggghiihiijiijkmnprnlkkllmnnkkprprsmoprromnoollmnlkjjjljkhigggiggggggfeddddddddddcccccccccccccdddddeeefgffggggggggggghhhhhhhhhhhhghhhhhiihhiiijjjjkklmnoptxutpttqmmllllkkkkkkkkkkkkkkkkkkkkkkkkkkjijkkkkkkkkkk
(PID.TID 0000.0001) //    205 eeeedddddddddddddccccccccccccccccccccccccccccccddddddegmrnhffeeeefffffeeeeeeeefeddddddeeeddddddddefhiklmnnnnnmljkjihiiiiiihggiiihiihhhhhfgieeedbbbbbcdeeeeefddegggiiiiiikiikmnprqmllllmnnnkloqrqqqrpnnmmnpnlmmmkjhkimikghhghiggggffedddddddddddccccccccccccddddddeefggeffggggggggghhhhhhhhhhhhhhhiihiiihhhiijjjjkklmnnorwvrttrnmmmllllklkkkllkkkkkkkkkkkkkkkkkjijkkkkkkkkkkk
[...]
(PID.TID 0000.0001)  cg2d: iter=   869 ; resid.=  1.43178256562030E+12
(PID.TID 0000.0001)  cg2d: iter=   870 ; resid.=  1.40886721214473E+13
(PID.TID 0000.0001)  cg2d: iter=   871 ; resid.=  1.18911167535825E+12
(PID.TID 0000.0001)  cg2d: iter=   872 ; resid.=  3.57117417282748E+12
(PID.TID 0000.0001)  cg2d: iter=   873 ; resid.=  1.42020646208887E+12
(PID.TID 0000.0001)  cg2d: iter=   874 ; resid.=  1.48413083307856E+12
(PID.TID 0000.0001)  cg2d: iter=   875 ; resid.=  3.16260736858416E+12
(PID.TID 0000.0001)  cg2d: iter=   876 ; resid.=  1.45386972114022E+12
(PID.TID 0000.0001)  cg2d: iter=   877 ; resid.=  4.28698957876994E+13
(PID.TID 0000.0001)  cg2d: iter=   878 ; resid.=  1.28477188069711E+12
(PID.TID 0000.0001)  cg2d: iter=   879 ; resid.=  4.15370128901780E+12
(PID.TID 0000.0001)  cg2d: iter=   880 ; resid.=  1.14281081652825E+12
(PID.TID 0000.0001)  cg2d: iter=   881 ; resid.=  1.09575139369912E+13
(PID.TID 0000.0001)  cg2d: iter=   882 ; resid.=  1.50530624030096E+12
(PID.TID 0000.0001)  cg2d: iter=   883 ; resid.=  1.60331179702278E+12
(PID.TID 0000.0001)  cg2d: iter=   884 ; resid.=  1.28423839398077E+12
(PID.TID 0000.0001)  cg2d: iter=   885 ; resid.=  3.43145449010497E+12
(PID.TID 0000.0001)  cg2d: iter=   886 ; resid.=  1.28723633927712E+12
(PID.TID 0000.0001)  cg2d: iter=   887 ; resid.=  2.38313222568000E+12
(PID.TID 0000.0001)  cg2d: iter=   888 ; resid.=  1.32019550331822E+12
(PID.TID 0000.0001)  cg2d: iter=   889 ; resid.=  6.32432488159517E+12
(PID.TID 0000.0001)  cg2d: iter=   890 ; resid.=  1.08377184464686E+12
(PID.TID 0000.0001)  cg2d: iter=   891 ; resid.=  4.06892092561795E+12
(PID.TID 0000.0001)  cg2d: iter=   892 ; resid.=  1.49543604482825E+12
(PID.TID 0000.0001)  cg2d: iter=   893 ; resid.=  4.63496134457899E+12
(PID.TID 0000.0001)  cg2d: iter=   894 ; resid.=  1.20251401809060E+12
(PID.TID 0000.0001)  cg2d: iter=   895 ; resid.=  5.39446652714827E+12
(PID.TID 0000.0001)  cg2d: iter=   896 ; resid.=  1.14907458255279E+12
(PID.TID 0000.0001)  cg2d: iter=   897 ; resid.=  5.99448226762777E+13
(PID.TID 0000.0001)  cg2d: iter=   898 ; resid.=  1.42054127793685E+12
(PID.TID 0000.0001)  cg2d: iter=   899 ; resid.=  3.78278068836316E+12
(PID.TID 0000.0001)  cg2d: iter=   900 ; resid.=  1.29059202556627E+12
(PID.TID 0000.0001)  cg2d: iter=   901 ; resid.=  1.21343439660729E+13
(PID.TID 0000.0001)  cg2d: iter=   902 ; resid.=  1.34495880733290E+12
(PID.TID 0000.0001)  cg2d: iter=   903 ; resid.=  2.02411635236494E+12
(PID.TID 0000.0001)  cg2d: iter=   904 ; resid.=  1.62444849225511E+12
(PID.TID 0000.0001)  cg2d: iter=   905 ; resid.=  1.79475387854109E+12
(PID.TID 0000.0001)  cg2d: iter=   906 ; resid.=  2.82254286722706E+13
(PID.TID 0000.0001)  cg2d: iter=   907 ; resid.=  1.14644357296448E+12
(PID.TID 0000.0001)  cg2d: iter=   908 ; resid.=  4.96894298859844E+13
(PID.TID 0000.0001)  cg2d: iter=   909 ; resid.=  1.33307285480832E+12
(PID.TID 0000.0001)  cg2d: iter=   910 ; resid.=  2.02894882279424E+13
(PID.TID 0000.0001)  cg2d: iter=   911 ; resid.=  1.30824723181830E+12
(PID.TID 0000.0001)  cg2d: iter=   912 ; resid.=  8.57886107574079E+13
(PID.TID 0000.0001)  cg2d: iter=   913 ; resid.=  1.20972316671957E+12
(PID.TID 0000.0001)  cg2d: iter=   914 ; resid.=  1.32742693874765E+13
(PID.TID 0000.0001)  cg2d: iter=   915 ; resid.=  1.36719159131972E+12
(PID.TID 0000.0001)  cg2d: iter=   916 ; resid.=  1.98564033991594E+12
(PID.TID 0000.0001)  cg2d: iter=   917 ; resid.=  2.24967962480465E+12
(PID.TID 0000.0001)  cg2d: iter=   918 ; resid.=  1.26544825596885E+12
(PID.TID 0000.0001)  cg2d: iter=   919 ; resid.=  8.03515053991986E+13
(PID.TID 0000.0001)  cg2d: iter=   920 ; resid.=  1.23038648252751E+12
(PID.TID 0000.0001)  cg2d: iter=   921 ; resid.=  3.00523561361808E+12
(PID.TID 0000.0001)  cg2d: iter=   922 ; resid.=  1.37428517337323E+12
(PID.TID 0000.0001)  cg2d: iter=   923 ; resid.=  2.24098852520204E+12
(PID.TID 0000.0001)  cg2d: iter=   924 ; resid.=  1.47065415461754E+12
(PID.TID 0000.0001)  cg2d: iter=   925 ; resid.=  2.29098154733021E+12
(PID.TID 0000.0001)  cg2d: iter=   926 ; resid.=  1.69841960971951E+12
(PID.TID 0000.0001)  cg2d: iter=   927 ; resid.=  2.60638904486485E+12
(PID.TID 0000.0001)  cg2d: iter=   928 ; resid.=  1.36036287985568E+12
(PID.TID 0000.0001)  cg2d: iter=   929 ; resid.=  6.96991742108129E+12
(PID.TID 0000.0001)  cg2d: iter=   930 ; resid.=  1.21950678396091E+12
(PID.TID 0000.0001)  cg2d: iter=   931 ; resid.=  8.89050803606914E+12
(PID.TID 0000.0001)  cg2d: iter=   932 ; resid.=  1.48352390597468E+12
(PID.TID 0000.0001)  cg2d: iter=   933 ; resid.=  2.02185543139606E+12
(PID.TID 0000.0001)  cg2d: iter=   934 ; resid.=  1.56487718934318E+12
(PID.TID 0000.0001)  cg2d: iter=   935 ; resid.=  1.58580656523825E+12
(PID.TID 0000.0001)  cg2d: iter=   936 ; resid.=  2.95832468437484E+12
(PID.TID 0000.0001)  cg2d: iter=   937 ; resid.=  1.20031714129152E+12
(PID.TID 0000.0001)  cg2d: iter=   938 ; resid.=  5.17132223090386E+12
(PID.TID 0000.0001)  cg2d: iter=   939 ; resid.=  1.47798479151435E+12
(PID.TID 0000.0001)  cg2d: iter=   940 ; resid.=  1.80244996355691E+12
(PID.TID 0000.0001)  cg2d: iter=   941 ; resid.=  1.54425664905052E+12
(PID.TID 0000.0001)  cg2d: iter=   942 ; resid.=  1.60925761452582E+12
(PID.TID 0000.0001)  cg2d: iter=   943 ; resid.=  1.37295198259140E+12
(PID.TID 0000.0001)  cg2d: iter=   944 ; resid.=  1.68012189317402E+12
(PID.TID 0000.0001)  cg2d: iter=   945 ; resid.=  2.15473579861540E+12
(PID.TID 0000.0001)  cg2d: iter=   946 ; resid.=  1.24005318304612E+12
(PID.TID 0000.0001)  cg2d: iter=   947 ; resid.=  2.40108762750788E+12
(PID.TID 0000.0001)  cg2d: iter=   948 ; resid.=  1.86142850801198E+12
(PID.TID 0000.0001)  cg2d: iter=   949 ; resid.=  1.59495348468502E+12
(PID.TID 0000.0001)  cg2d: iter=   950 ; resid.=  2.34405003789535E+12
(PID.TID 0000.0001)  cg2d: iter=   951 ; resid.=  1.42966791381404E+12
(PID.TID 0000.0001)  cg2d: iter=   952 ; resid.=  6.35774455680467E+12
(PID.TID 0000.0001)  cg2d: iter=   953 ; resid.=  1.51433203388014E+12
(PID.TID 0000.0001)  cg2d: iter=   954 ; resid.=  2.63557749695981E+12
(PID.TID 0000.0001)  cg2d: iter=   955 ; resid.=  1.40223159702813E+12
(PID.TID 0000.0001)  cg2d: iter=   956 ; resid.=  1.94196728077834E+12
(PID.TID 0000.0001)  cg2d: iter=   957 ; resid.=  1.53227014442914E+12
(PID.TID 0000.0001)  cg2d: iter=   958 ; resid.=  1.29337681260691E+13
(PID.TID 0000.0001)  cg2d: iter=   959 ; resid.=  1.12789320388141E+12
(PID.TID 0000.0001)  cg2d: iter=   960 ; resid.=  3.06490230734356E+12
(PID.TID 0000.0001)  cg2d: iter=   961 ; resid.=  1.58914061220785E+12
(PID.TID 0000.0001)  cg2d: iter=   962 ; resid.=  1.30460429360045E+12
(PID.TID 0000.0001)  cg2d: iter=   963 ; resid.=  1.03576562971439E+13
(PID.TID 0000.0001)  cg2d: iter=   964 ; resid.=  1.14952348197269E+12
(PID.TID 0000.0001)  cg2d: iter=   965 ; resid.=  1.81978849884269E+13
(PID.TID 0000.0001)  cg2d: iter=   966 ; resid.=  1.43595968605726E+12
(PID.TID 0000.0001)  cg2d: iter=   967 ; resid.=  3.07119033438451E+12
(PID.TID 0000.0001)  cg2d: iter=   968 ; resid.=  1.32715919861129E+12
(PID.TID 0000.0001)  cg2d: iter=   969 ; resid.=  2.01242693084721E+12
(PID.TID 0000.0001)  cg2d: iter=   970 ; resid.=  1.75607903315015E+12
(PID.TID 0000.0001)  cg2d: iter=   971 ; resid.=  1.28486995170750E+12
(PID.TID 0000.0001)  cg2d: iter=   972 ; resid.=  3.33030476693401E+13
(PID.TID 0000.0001)  cg2d: iter=   973 ; resid.=  1.19462934378651E+12
(PID.TID 0000.0001)  cg2d: iter=   974 ; resid.=  1.50233084574892E+12
(PID.TID 0000.0001)  cg2d: iter=   975 ; resid.=  2.76157704094088E+12
(PID.TID 0000.0001)  cg2d: iter=   976 ; resid.=  1.60187252279397E+12
(PID.TID 0000.0001)  cg2d: iter=   977 ; resid.=  1.41788393873307E+12
(PID.TID 0000.0001)  cg2d: iter=   978 ; resid.=  1.56090496269431E+12
(PID.TID 0000.0001)  cg2d: iter=   979 ; resid.=  4.18754031203847E+12
(PID.TID 0000.0001)  cg2d: iter=   980 ; resid.=  1.17285263314110E+12
(PID.TID 0000.0001)  cg2d: iter=   981 ; resid.=  2.06983405777062E+12
(PID.TID 0000.0001)  cg2d: iter=   982 ; resid.=  1.47678283152887E+12
(PID.TID 0000.0001)  cg2d: iter=   983 ; resid.=  2.73664129520604E+12
(PID.TID 0000.0001)  cg2d: iter=   984 ; resid.=  1.05305552792078E+12
(PID.TID 0000.0001)  cg2d: iter=   985 ; resid.=  2.99756290180507E+12
(PID.TID 0000.0001)  cg2d: iter=   986 ; resid.=  1.48284974409998E+12
(PID.TID 0000.0001)  cg2d: iter=   987 ; resid.=  1.89278894397740E+12
(PID.TID 0000.0001)  cg2d: iter=   988 ; resid.=  1.14097952816491E+12
(PID.TID 0000.0001)  cg2d: iter=   989 ; resid.=  4.07615352736606E+12
(PID.TID 0000.0001)  cg2d: iter=   990 ; resid.=  1.24807143747220E+12
(PID.TID 0000.0001)  cg2d: iter=   991 ; resid.=  2.31158195175425E+12
(PID.TID 0000.0001)  cg2d: iter=   992 ; resid.=  2.05198365334598E+12
(PID.TID 0000.0001)  cg2d: iter=   993 ; resid.=  1.25111573025973E+12
(PID.TID 0000.0001)  cg2d: iter=   994 ; resid.=  2.19926531595693E+12
(PID.TID 0000.0001)  cg2d: iter=   995 ; resid.=  1.20058234316315E+12
(PID.TID 0000.0001)  cg2d: iter=   996 ; resid.=  3.80219400356454E+12
(PID.TID 0000.0001)  cg2d: iter=   997 ; resid.=  1.10111294583488E+12
(PID.TID 0000.0001)  cg2d: iter=   998 ; resid.=  3.61637306268525E+12
(PID.TID 0000.0001)  cg2d: iter=   999 ; resid.=  1.38174936900189E+12
(PID.TID 0000.0001)  cg2d: iter=  1000 ; resid.=  3.68749760861836E+12
(PID.TID 0000.0001) // =======================================================
(PID.TID 0000.0001) // Model current state
(PID.TID 0000.0001) // =======================================================
(PID.TID 0000.0001) 
(PID.TID 0000.0001) // =======================================================
(PID.TID 0000.0001) // Begin MONITOR dynamic field statistics
(PID.TID 0000.0001) // =======================================================
(PID.TID 0000.0001) %MON time_tsnumber                =                     0
(PID.TID 0000.0001) %MON time_secondsf                =   0.0000000000000E+00
(PID.TID 0000.0001) %MON dynstat_eta_max              =   0.0000000000000E+00
(PID.TID 0000.0001) %MON dynstat_eta_min              =   0.0000000000000E+00
(PID.TID 0000.0001) %MON dynstat_eta_mean             =   0.0000000000000E+00
(PID.TID 0000.0001) %MON dynstat_eta_sd               =   0.0000000000000E+00
(PID.TID 0000.0001) %MON dynstat_eta_del2             =   0.0000000000000E+00
(PID.TID 0000.0001) %MON dynstat_uvel_max             =   0.0000000000000E+00
(PID.TID 0000.0001) %MON dynstat_uvel_min             =   0.0000000000000E+00
(PID.TID 0000.0001) %MON dynstat_uvel_mean            =   0.0000000000000E+00
(PID.TID 0000.0001) %MON dynstat_uvel_sd              =   0.0000000000000E+00
(PID.TID 0000.0001) %MON dynstat_uvel_del2            =   0.0000000000000E+00
(PID.TID 0000.0001) %MON dynstat_vvel_max             =   0.0000000000000E+00
(PID.TID 0000.0001) %MON dynstat_vvel_min             =   0.0000000000000E+00
(PID.TID 0000.0001) %MON dynstat_vvel_mean            =   0.0000000000000E+00
(PID.TID 0000.0001) %MON dynstat_vvel_sd              =   0.0000000000000E+00
(PID.TID 0000.0001) %MON dynstat_vvel_del2            =   0.0000000000000E+00
(PID.TID 0000.0001) %MON dynstat_wvel_max             =  -0.0000000000000E+00
(PID.TID 0000.0001) %MON dynstat_wvel_min             =  -0.0000000000000E+00
(PID.TID 0000.0001) %MON dynstat_wvel_mean            =   0.0000000000000E+00
(PID.TID 0000.0001) %MON dynstat_wvel_sd              =   0.0000000000000E+00
(PID.TID 0000.0001) %MON dynstat_wvel_del2            =   0.0000000000000E+00
(PID.TID 0000.0001) %MON dynstat_theta_max            =   2.0000000000000E+01
(PID.TID 0000.0001) %MON dynstat_theta_min            =   2.0000000000000E+01
(PID.TID 0000.0001) %MON dynstat_theta_mean           =   2.0000000000000E+01
(PID.TID 0000.0001) %MON dynstat_theta_sd             =   8.1712414612411E-14
(PID.TID 0000.0001) %MON dynstat_theta_del2           =   0.0000000000000E+00
(PID.TID 0000.0001) %MON dynstat_salt_max             =   3.0000000000000E+01
(PID.TID 0000.0001) %MON dynstat_salt_min             =   3.0000000000000E+01
(PID.TID 0000.0001) %MON dynstat_salt_mean            =   3.0000000000000E+01
(PID.TID 0000.0001) %MON dynstat_salt_sd              =   2.0605739337043E-13
(PID.TID 0000.0001) %MON dynstat_salt_del2            =   0.0000000000000E+00
(PID.TID 0000.0001) %MON dynstat_sst_max              =   2.0000000000000E+01
(PID.TID 0000.0001) %MON dynstat_sst_min              =   2.0000000000000E+01
(PID.TID 0000.0001) %MON dynstat_sst_mean             =   1.9999999999998E+01
(PID.TID 0000.0001) %MON dynstat_sst_sd               =   2.4584778657296E-12
(PID.TID 0000.0001) %MON dynstat_sst_del2             =   0.0000000000000E+00
(PID.TID 0000.0001) %MON dynstat_sss_max              =   3.0000000000000E+01
(PID.TID 0000.0001) %MON dynstat_sss_min              =   3.0000000000000E+01
(PID.TID 0000.0001) %MON dynstat_sss_mean             =   2.9999999999996E+01
(PID.TID 0000.0001) %MON dynstat_sss_sd               =   4.4231285301062E-12
(PID.TID 0000.0001) %MON dynstat_sss_del2             =   0.0000000000000E+00
(PID.TID 0000.0001) %MON forcing_qnet_max             =   0.0000000000000E+00
(PID.TID 0000.0001) %MON forcing_qnet_min             =   0.0000000000000E+00
(PID.TID 0000.0001) %MON forcing_qnet_mean            =   0.0000000000000E+00
(PID.TID 0000.0001) %MON forcing_qnet_sd              =   0.0000000000000E+00
(PID.TID 0000.0001) %MON forcing_qnet_del2            =   0.0000000000000E+00
(PID.TID 0000.0001) %MON forcing_qsw_max              =   0.0000000000000E+00
(PID.TID 0000.0001) %MON forcing_qsw_min              =   0.0000000000000E+00
(PID.TID 0000.0001) %MON forcing_qsw_mean             =   0.0000000000000E+00
(PID.TID 0000.0001) %MON forcing_qsw_sd               =   0.0000000000000E+00
(PID.TID 0000.0001) %MON forcing_qsw_del2             =   0.0000000000000E+00
(PID.TID 0000.0001) %MON forcing_empmr_max            =   0.0000000000000E+00
(PID.TID 0000.0001) %MON forcing_empmr_min            =   0.0000000000000E+00
(PID.TID 0000.0001) %MON forcing_empmr_mean           =   0.0000000000000E+00
(PID.TID 0000.0001) %MON forcing_empmr_sd             =   0.0000000000000E+00
(PID.TID 0000.0001) %MON forcing_empmr_del2           =   0.0000000000000E+00
(PID.TID 0000.0001) %MON forcing_fu_max               =   0.0000000000000E+00
(PID.TID 0000.0001) %MON forcing_fu_min               =   0.0000000000000E+00
(PID.TID 0000.0001) %MON forcing_fu_mean              =   0.0000000000000E+00
(PID.TID 0000.0001) %MON forcing_fu_sd                =   0.0000000000000E+00
(PID.TID 0000.0001) %MON forcing_fu_del2              =   0.0000000000000E+00
(PID.TID 0000.0001) %MON forcing_fv_max               =   0.0000000000000E+00
(PID.TID 0000.0001) %MON forcing_fv_min               =   0.0000000000000E+00
(PID.TID 0000.0001) %MON forcing_fv_mean              =   0.0000000000000E+00
(PID.TID 0000.0001) %MON forcing_fv_sd                =   0.0000000000000E+00
(PID.TID 0000.0001) %MON forcing_fv_del2              =   0.0000000000000E+00
(PID.TID 0000.0001) %MON trAdv_CFL_u_max              =   0.0000000000000E+00
(PID.TID 0000.0001) %MON trAdv_CFL_v_max              =   0.0000000000000E+00
(PID.TID 0000.0001) %MON trAdv_CFL_w_max              =   0.0000000000000E+00
(PID.TID 0000.0001) %MON advcfl_uvel_max              =   0.0000000000000E+00
(PID.TID 0000.0001) %MON advcfl_vvel_max              =   0.0000000000000E+00
(PID.TID 0000.0001) %MON advcfl_wvel_max              =   0.0000000000000E+00
(PID.TID 0000.0001) %MON advcfl_W_hf_max              =   0.0000000000000E+00
(PID.TID 0000.0001) %MON pe_b_mean                    =   0.0000000000000E+00
(PID.TID 0000.0001) %MON ke_max                       =   0.0000000000000E+00
(PID.TID 0000.0001) %MON ke_mean                      =   0.0000000000000E+00
(PID.TID 0000.0001) %MON ke_vol                       =   1.3390214028633E+18
(PID.TID 0000.0001) %MON vort_r_min                   =   0.0000000000000E+00
(PID.TID 0000.0001) %MON vort_r_max                   =   0.0000000000000E+00
(PID.TID 0000.0001) %MON vort_a_mean                  =  -1.3013328496589E-05
(PID.TID 0000.0001) %MON vort_a_sd                    =   8.0374144259079E-05
(PID.TID 0000.0001) %MON vort_p_mean                  =  -4.0285224932342E-05
(PID.TID 0000.0001) %MON vort_p_sd                    =   2.8329417776011E-03
(PID.TID 0000.0001) %MON surfExpan_theta_mean         =   0.0000000000000E+00
(PID.TID 0000.0001) %MON surfExpan_salt_mean          =   0.0000000000000E+00
(PID.TID 0000.0001) // =======================================================
(PID.TID 0000.0001) // End MONITOR dynamic field statistics
(PID.TID 0000.0001) // =======================================================
(PID.TID 0000.0001)   Seconds in section "ALL                    [THE_MODEL_MAIN]":
(PID.TID 0000.0001)           User time:   3.1162290908396244
(PID.TID 0000.0001)         System time:   9.3408994376659393E-002
(PID.TID 0000.0001)     Wall clock time:   4.1615400314331055
(PID.TID 0000.0001)          No. starts:           1
(PID.TID 0000.0001)           No. stops:           1
(PID.TID 0000.0001)   Seconds in section "INITIALISE_FIXED       [THE_MODEL_MAIN]":
(PID.TID 0000.0001)           User time:   9.0268002822995186E-002
(PID.TID 0000.0001)         System time:   2.5623001158237457E-002
(PID.TID 0000.0001)     Wall clock time:  0.25589799880981445
(PID.TID 0000.0001)          No. starts:           1
(PID.TID 0000.0001)           No. stops:           1
(PID.TID 0000.0001)   Seconds in section "THE_MAIN_LOOP          [THE_MODEL_MAIN]":
(PID.TID 0000.0001)           User time:   3.0259469896554947
(PID.TID 0000.0001)         System time:   6.7775994539260864E-002
(PID.TID 0000.0001)     Wall clock time:   3.9056029319763184
(PID.TID 0000.0001)          No. starts:           1
(PID.TID 0000.0001)           No. stops:           1
(PID.TID 0000.0001)   Seconds in section "INITIALISE_VARIA    [THE_MAIN_LOOP]":
(PID.TID 0000.0001)           User time:   3.0259339809417725
(PID.TID 0000.0001)         System time:   6.7758005112409592E-002
(PID.TID 0000.0001)     Wall clock time:   3.9055728912353516
(PID.TID 0000.0001)          No. starts:           1
(PID.TID 0000.0001)           No. stops:           1
(PID.TID 0000.0001)   Seconds in section "MAIN LOOP           [THE_MAIN_LOOP]":
(PID.TID 0000.0001)           User time:   2.8610229492187500E-006
(PID.TID 0000.0001)         System time:   9.9837779998779297E-007
(PID.TID 0000.0001)     Wall clock time:   4.0531158447265625E-006
(PID.TID 0000.0001)          No. starts:           1
(PID.TID 0000.0001)           No. stops:           1
(PID.TID 0000.0001) // ======================================================
(PID.TID 0000.0001) // Tile <-> Tile communication statistics
(PID.TID 0000.0001) // ======================================================
(PID.TID 0000.0001) // o Tile number: 000001
(PID.TID 0000.0001) //         No. X exchanges =              0
(PID.TID 0000.0001) //            Max. X spins =              0
(PID.TID 0000.0001) //            Min. X spins =     1000000000
(PID.TID 0000.0001) //          Total. X spins =              0
(PID.TID 0000.0001) //            Avg. X spins =       0.00E+00
(PID.TID 0000.0001) //         No. Y exchanges =              0
(PID.TID 0000.0001) //            Max. Y spins =              0
(PID.TID 0000.0001) //            Min. Y spins =     1000000000
(PID.TID 0000.0001) //          Total. Y spins =              0
(PID.TID 0000.0001) //            Avg. Y spins =       0.00E+00
(PID.TID 0000.0001) // o Thread number: 000001
(PID.TID 0000.0001) //            No. barriers =           6562
(PID.TID 0000.0001) //      Max. barrier spins =              1
(PID.TID 0000.0001) //      Min. barrier spins =              1
(PID.TID 0000.0001) //     Total barrier spins =           6562
(PID.TID 0000.0001) //      Avg. barrier spins =       1.00E+00
PROGRAM MAIN: Execution ended Normally
