(PID.TID 0003.0001) 
(PID.TID 0003.0001) // ======================================================
(PID.TID 0003.0001) //                      MITgcm UV
(PID.TID 0003.0001) //                      =========
(PID.TID 0003.0001) // ======================================================
(PID.TID 0003.0001) // execution environment starting up...
(PID.TID 0003.0001) 
(PID.TID 0003.0001) // MITgcmUV version:  checkpoint69i
(PID.TID 0003.0001) // Build user:        hodahashemi
(PID.TID 0003.0001) // Build host:        Hodas-MacBook-Pro.local
(PID.TID 0003.0001) // Build date:        Fri Feb 20 00:26:36 EET 2026
(PID.TID 0003.0001) 
(PID.TID 0003.0001) // =======================================================
(PID.TID 0003.0001) // Execution Environment parameter file "eedata"
(PID.TID 0003.0001) // =======================================================
(PID.TID 0003.0001) > &EEPARMS
(PID.TID 0003.0001) >  nTx=1,
(PID.TID 0003.0001) >  nTy=1,
(PID.TID 0003.0001) > /
(PID.TID 0003.0001) >
(PID.TID 0003.0001) 
(PID.TID 0003.0001) // =======================================================
(PID.TID 0003.0001) // Computational Grid Specification ( see files "SIZE.h" )
(PID.TID 0003.0001) //                                  ( and "eedata"       )
(PID.TID 0003.0001) // =======================================================
(PID.TID 0003.0001)      nPx =    4 ; /* No. processes in X */
(PID.TID 0003.0001)      nPy =    2 ; /* No. processes in Y */
(PID.TID 0003.0001)      nSx =    1 ; /* No. tiles in X per process */
(PID.TID 0003.0001)      nSy =    1 ; /* No. tiles in Y per process */
(PID.TID 0003.0001)      sNx =  360 ; /* Tile size in X */
(PID.TID 0003.0001)      sNy =  360 ; /* Tile size in Y */
(PID.TID 0003.0001)      OLx =    2 ; /* Tile overlap distance in X */
(PID.TID 0003.0001)      OLy =    2 ; /* Tile overlap distance in Y */
(PID.TID 0003.0001)      nTx =    1 ; /* No. threads in X per process */
(PID.TID 0003.0001)      nTy =    1 ; /* No. threads in Y per process */
(PID.TID 0003.0001)       Nr =    1 ; /* No. levels in the vertical   */
(PID.TID 0003.0001)       Nx = 1440 ; /* Total domain size in X ( = nPx*nSx*sNx ) */
(PID.TID 0003.0001)       Ny =  720 ; /* Total domain size in Y ( = nPy*nSy*sNy ) */
(PID.TID 0003.0001)   nTiles =    1 ; /* Total no. tiles per process ( = nSx*nSy ) */
(PID.TID 0003.0001)   nProcs =    8 ; /* Total no. processes ( = nPx*nPy ) */
(PID.TID 0003.0001) nThreads =    1 ; /* Total no. threads per process ( = nTx*nTy ) */
(PID.TID 0003.0001) usingMPI =    T ; /* Flag used to control whether MPI is in use */
(PID.TID 0003.0001)                   /*  note: To execute a program with MPI calls */
(PID.TID 0003.0001)                   /*  it must be launched appropriately e.g     */
(PID.TID 0003.0001)                   /*  "mpirun -np 64 ......"                    */
(PID.TID 0003.0001) useCoupler=   F ; /* Flag used to control communications with   */
(PID.TID 0003.0001)                   /*  other model components, through a coupler */
(PID.TID 0003.0001) useNest2W_parent =    F ;/* Control 2-W Nesting comm */
(PID.TID 0003.0001) useNest2W_child  =    F ;/* Control 2-W Nesting comm */
(PID.TID 0003.0001) debugMode =    F ; /* print debug msg. (sequence of S/R calls)  */
(PID.TID 0003.0001) printMapIncludesZeros=    F ; /* print zeros in Std.Output maps */
(PID.TID 0003.0001) maxLengthPrt1D=   65 /* maxLength of 1D array printed to StdOut */
(PID.TID 0003.0001) 
(PID.TID 0003.0001) ======= Starting MPI parallel Run =========
(PID.TID 0003.0001)  My Processor Name (len: 23 ) = Hodas-MacBook-Pro.local
(PID.TID 0003.0001)  Located at (  1,  1) on processor grid (0:  3,0:  1)
(PID.TID 0003.0001)  Origin at  (   361,   361) on global grid (1:  1440,1:   720)
(PID.TID 0003.0001)  North neighbor = processor 0002
(PID.TID 0003.0001)  South neighbor = processor 0002
(PID.TID 0003.0001)   East neighbor = processor 0005
(PID.TID 0003.0001)   West neighbor = processor 0001
(PID.TID 0003.0001) // ======================================================
(PID.TID 0003.0001) // Mapping of tiles to threads
(PID.TID 0003.0001) // ======================================================
(PID.TID 0003.0001) // -o- Thread   1, tiles (   1:   1,   1:   1)
(PID.TID 0003.0001) 
(PID.TID 0003.0001) // ======================================================
(PID.TID 0003.0001) // Tile <-> Tile connectvity table
(PID.TID 0003.0001) // ======================================================
(PID.TID 0003.0001) // Tile number: 000006 (process no. = 000003)
(PID.TID 0003.0001) //        WEST: Tile = 000005, Process = 000001, Comm = messages
(PID.TID 0003.0001) //                bi = 000001, bj = 000001
(PID.TID 0003.0001) //        EAST: Tile = 000007, Process = 000005, Comm = messages
(PID.TID 0003.0001) //                bi = 000001, bj = 000001
(PID.TID 0003.0001) //       SOUTH: Tile = 000002, Process = 000002, Comm = messages
(PID.TID 0003.0001) //                bi = 000001, bj = 000001
(PID.TID 0003.0001) //       NORTH: Tile = 000002, Process = 000002, Comm = messages
(PID.TID 0003.0001) //                bi = 000001, bj = 000001
(PID.TID 0003.0001) 
(PID.TID 0003.0001)  INI_PARMS: opening model parameter file "data"
(PID.TID 0003.0001)  OPEN_COPY_DATA_FILE: opening file data
(PID.TID 0003.0001) // =======================================================
(PID.TID 0003.0001) // Parameter file "data"
(PID.TID 0003.0001) // =======================================================
(PID.TID 0003.0001) >&PARM01
(PID.TID 0003.0001) >#rotationPeriod is set ini_parms: 86164 \approx 7.292123516990375e-5 ; our fortan is c/86400
(PID.TID 0003.0001) ># 7.27220521664304e-5 , 6.283185307179586
(PID.TID 0003.0001) >omega = 7.292E-5,
(PID.TID 0003.0001) ># MAYBE WE NEED TO ADD 1E2 FOR STABILITY IDK
(PID.TID 0003.0001) >viscAh  = 0.,
(PID.TID 0003.0001) >viscA4  = 0.,
(PID.TID 0003.0001) >diffKhT = 0.,
(PID.TID 0003.0001) >no_slip_sides = .FALSE.,
(PID.TID 0003.0001) >no_slip_bottom = .FALSE.,
(PID.TID 0003.0001) >exactConserv=.TRUE.,
(PID.TID 0003.0001) >momStepping=.FALSE.,
(PID.TID 0003.0001) >tempStepping=.FALSE.,
(PID.TID 0003.0001) >saltStepping=.FALSE.,
(PID.TID 0003.0001) >hFacMin=0.00001,
(PID.TID 0003.0001) >hFacMinDr=0.5,
(PID.TID 0003.0001) >/
(PID.TID 0003.0001) >
(PID.TID 0003.0001) >&PARM02
(PID.TID 0003.0001) >cg2dMaxIters = 1000,
(PID.TID 0003.0001) >cg2dTargetResidual = 1.E-8,
(PID.TID 0003.0001) >cg2dPreCondFreq = 1,
(PID.TID 0003.0001) >printResidualFreq= 1 ,
(PID.TID 0003.0001) >/
(PID.TID 0003.0001) >
(PID.TID 0003.0001) >&PARM03
(PID.TID 0003.0001) >nIter0   = 0,
(PID.TID 0003.0001) >nTimeSteps = 0,
(PID.TID 0003.0001) >deltaT   = 3600.,
(PID.TID 0003.0001) >monitorFreq=10,
(PID.TID 0003.0001) >/
(PID.TID 0003.0001) >
(PID.TID 0003.0001) >&PARM04
(PID.TID 0003.0001) >usingSphericalPolarGrid = .TRUE.,
(PID.TID 0003.0001) >delX = 1440*0.25,
(PID.TID 0003.0001) >delY = 720*0.25,
(PID.TID 0003.0001) >xgOrigin = 0.,
(PID.TID 0003.0001) >ygOrigin = -90.,
(PID.TID 0003.0001) >rSphere = 6371000.,
(PID.TID 0003.0001) >#clipping elevation of water
(PID.TID 0003.0001) >delR =  11000.0 ,
(PID.TID 0003.0001) >
(PID.TID 0003.0001) >/
(PID.TID 0003.0001) >
(PID.TID 0003.0001) ># Input datasets
(PID.TID 0003.0001) >&PARM05
(PID.TID 0003.0001) >bathyFile='bathymetry.bin',
(PID.TID 0003.0001) ># bathyFile='',
(PID.TID 0003.0001) >#  zonalWindFile='wind.bin',# Forcing to drive the "steady" circulation
(PID.TID 0003.0001) >
(PID.TID 0003.0001) >/
(PID.TID 0003.0001) >
(PID.TID 0003.0001) 
(PID.TID 0003.0001)  INI_PARMS ; starts to read PARM01
(PID.TID 0003.0001)  INI_PARMS ; read PARM01 : OK
(PID.TID 0003.0001) S/R INI_PARMS: No request for barotropic solver
(PID.TID 0003.0001) S/R INI_PARMS: => Use implicitFreeSurface as default
(PID.TID 0003.0001)  INI_PARMS ; starts to read PARM02
(PID.TID 0003.0001)  INI_PARMS ; read PARM02 : OK
(PID.TID 0003.0001)  INI_PARMS ; starts to read PARM03
(PID.TID 0003.0001)  INI_PARMS ; read PARM03 : OK
(PID.TID 0003.0001)  INI_PARMS ; starts to read PARM04
(PID.TID 0003.0001)  INI_PARMS ; read PARM04 : OK
(PID.TID 0003.0001)  INI_PARMS ; starts to read PARM05
(PID.TID 0003.0001)  INI_PARMS ; read PARM05 : OK
(PID.TID 0003.0001)  INI_PARMS: finished reading file "data"
(PID.TID 0003.0001)  PACKAGES_BOOT: opening data.pkg
(PID.TID 0003.0001)  OPEN_COPY_DATA_FILE: opening file data.pkg
(PID.TID 0003.0001) // =======================================================
(PID.TID 0003.0001) // Parameter file "data.pkg"
(PID.TID 0003.0001) // =======================================================
(PID.TID 0003.0001) > &PACKAGES
(PID.TID 0003.0001) >  useMyPackage = .TRUE.,
(PID.TID 0003.0001) > /
(PID.TID 0003.0001) 
(PID.TID 0003.0001)  PACKAGES_BOOT: finished reading data.pkg
(PID.TID 0003.0001)  PACKAGES_BOOT: On/Off package Summary
 --------  pkgs with a standard "usePKG" On/Off switch in "data.pkg":  --------
 pkg/mypackage            compiled   and   used ( useMYPACKAGE             = T )
 -------- pkgs without standard "usePKG" On/Off switch in "data.pkg":  --------
 pkg/generic_advdiff      compiled but not used ( useGAD                   = F )
 pkg/mom_common           compiled but not used ( momStepping              = F )
 pkg/mom_vecinv           compiled but not used ( +vectorInvariantMomentum = F )
 pkg/mom_fluxform         compiled but not used ( & not vectorInvariantMom = F )
 pkg/monitor              compiled   and   used ( monitorFreq > 0.         = T )
 pkg/debug                compiled but not used ( debugMode                = F )
 pkg/rw                   compiled   and   used
 pkg/mdsio                compiled   and   used
(PID.TID 0003.0001)  PACKAGES_BOOT: End of package Summary
(PID.TID 0003.0001) 
(PID.TID 0003.0001) MYPACKAGE_READPARMS: opening data.mypackage
(PID.TID 0003.0001)  OPEN_COPY_DATA_FILE: opening file data.mypackage
(PID.TID 0003.0001) // =======================================================
(PID.TID 0003.0001) // Parameter file "data.mypackage"
(PID.TID 0003.0001) // =======================================================
(PID.TID 0003.0001) >&MYPACKAGE_PARM01
(PID.TID 0003.0001) >/
(PID.TID 0003.0001) 
(PID.TID 0003.0001) MYPACKAGE_READPARMS: finished reading data.mypackage
(PID.TID 0003.0001) SET_PARMS: done
(PID.TID 0003.0001) Enter INI_VERTICAL_GRID: setInterFDr=    T ; setCenterDr=    F
(PID.TID 0003.0001) %MON XC_max                       =   3.5987500000000E+02
(PID.TID 0003.0001) %MON XC_min                       =   1.2500000000000E-01
(PID.TID 0003.0001) %MON XC_mean                      =   1.8000000000000E+02
(PID.TID 0003.0001) %MON XC_sd                        =   1.0392302339552E+02
(PID.TID 0003.0001) %MON XG_max                       =   3.5975000000000E+02
(PID.TID 0003.0001) %MON XG_min                       =   0.0000000000000E+00
(PID.TID 0003.0001) %MON XG_mean                      =   1.7987500000000E+02
(PID.TID 0003.0001) %MON XG_sd                        =   1.0392302339552E+02
(PID.TID 0003.0001) %MON DXC_max                      =   2.7798665505088E+04
(PID.TID 0003.0001) %MON DXC_min                      =   6.0647376310612E+01
(PID.TID 0003.0001) %MON DXC_mean                     =   1.7697236260984E+04
(PID.TID 0003.0001) %MON DXC_sd                       =   8.5552656128781E+03
(PID.TID 0003.0001) %MON DXF_max                      =   2.7798665505088E+04
(PID.TID 0003.0001) %MON DXF_min                      =   6.0647376310612E+01
(PID.TID 0003.0001) %MON DXF_mean                     =   1.7697236260984E+04
(PID.TID 0003.0001) %MON DXF_sd                       =   8.5552656128781E+03
(PID.TID 0003.0001) %MON DXG_max                      =   2.7798731661140E+04
(PID.TID 0003.0001) %MON DXG_min                      =   0.0000000000000E+00
(PID.TID 0003.0001) %MON DXG_mean                     =   1.7697194144702E+04
(PID.TID 0003.0001) %MON DXG_sd                       =   8.5553527331570E+03
(PID.TID 0003.0001) %MON DXV_max                      =   2.7798731661140E+04
(PID.TID 0003.0001) %MON DXV_min                      =   0.0000000000000E+00
(PID.TID 0003.0001) %MON DXV_mean                     =   1.7697194144702E+04
(PID.TID 0003.0001) %MON DXV_sd                       =   8.5553527331570E+03
(PID.TID 0003.0001) %MON YC_max                       =   8.9875000000000E+01
(PID.TID 0003.0001) %MON YC_min                       =  -8.9875000000000E+01
(PID.TID 0003.0001) %MON YC_mean                      =   0.0000000000000E+00
(PID.TID 0003.0001) %MON YC_sd                        =   5.1961474109831E+01
(PID.TID 0003.0001) %MON YG_max                       =   8.9750000000000E+01
(PID.TID 0003.0001) %MON YG_min                       =  -9.0000000000000E+01
(PID.TID 0003.0001) %MON YG_mean                      =  -1.2500000000000E-01
(PID.TID 0003.0001) %MON YG_sd                        =   5.1961474109831E+01
(PID.TID 0003.0001) %MON DYC_max                      =   2.7798731661140E+04
(PID.TID 0003.0001) %MON DYC_min                      =   2.7798731661140E+04
(PID.TID 0003.0001) %MON DYC_mean                     =   2.7798731661186E+04
(PID.TID 0003.0001) %MON DYC_sd                       =   4.6802597353235E-08
(PID.TID 0003.0001) %MON DYF_max                      =   2.7798731661140E+04
(PID.TID 0003.0001) %MON DYF_min                      =   2.7798731661140E+04
(PID.TID 0003.0001) %MON DYF_mean                     =   2.7798731661186E+04
(PID.TID 0003.0001) %MON DYF_sd                       =   4.6802597353235E-08
(PID.TID 0003.0001) %MON DYG_max                      =   2.7798731661140E+04
(PID.TID 0003.0001) %MON DYG_min                      =   2.7798731661140E+04
(PID.TID 0003.0001) %MON DYG_mean                     =   2.7798731661186E+04
(PID.TID 0003.0001) %MON DYG_sd                       =   4.6802597353235E-08
(PID.TID 0003.0001) %MON DYU_max                      =   2.7798731661140E+04
(PID.TID 0003.0001) %MON DYU_min                      =   2.7798731661140E+04
(PID.TID 0003.0001) %MON DYU_mean                     =   2.7798731661186E+04
(PID.TID 0003.0001) %MON DYU_sd                       =   4.6802597353235E-08
(PID.TID 0003.0001) %MON RA_max                       =   7.7276702989699E+08
(PID.TID 0003.0001) %MON RA_min                       =   1.6859188026131E+06
(PID.TID 0003.0001) %MON RA_mean                      =   4.9196033170312E+08
(PID.TID 0003.0001) %MON RA_sd                        =   2.3782534440125E+08
(PID.TID 0003.0001) %MON RAW_max                      =   7.7276702989699E+08
(PID.TID 0003.0001) %MON RAW_min                      =   1.6859188026131E+06
(PID.TID 0003.0001) %MON RAW_mean                     =   4.9196033170312E+08
(PID.TID 0003.0001) %MON RAW_sd                       =   2.3782534440125E+08
(PID.TID 0003.0001) %MON RAS_max                      =   7.7276886894985E+08
(PID.TID 0003.0001) %MON RAS_min                      =   0.0000000000000E+00
(PID.TID 0003.0001) %MON RAS_mean                     =   4.9195916092479E+08
(PID.TID 0003.0001) %MON RAS_sd                       =   2.3782776623264E+08
(PID.TID 0003.0001) %MON RAZ_max                      =   7.7276886894985E+08
(PID.TID 0003.0001) %MON RAZ_min                      =   0.0000000000000E+00
(PID.TID 0003.0001) %MON RAZ_mean                     =   4.9195916092479E+08
(PID.TID 0003.0001) %MON RAZ_sd                       =   2.3782776623264E+08
(PID.TID 0003.0001) %MON AngleCS_max                  =   1.0000000000000E+00
(PID.TID 0003.0001) %MON AngleCS_min                  =   1.0000000000000E+00
(PID.TID 0003.0001) %MON AngleCS_mean                 =   1.0000000000000E+00
(PID.TID 0003.0001) %MON AngleCS_sd                   =   0.0000000000000E+00
(PID.TID 0003.0001) %MON AngleSN_max                  =   0.0000000000000E+00
(PID.TID 0003.0001) %MON AngleSN_min                  =   0.0000000000000E+00
(PID.TID 0003.0001) %MON AngleSN_mean                 =   0.0000000000000E+00
(PID.TID 0003.0001) %MON AngleSN_sd                   =   0.0000000000000E+00
(PID.TID 0003.0001)  MDS_READ_FIELD: opening global file: bathymetry.bin
(PID.TID 0003.0001) // =======================================================
(PID.TID 0003.0001) // Field Model R_low (ini_masks_etc)
(PID.TID 0003.0001) // CMIN =         -1.023978906250000E+04
(PID.TID 0003.0001) // CMAX =         -4.999999999999999E-01
(PID.TID 0003.0001) // CINT =          3.792329282407408E+02
(PID.TID 0003.0001) // SYMBOLS (CMIN->CMAX): -abcdefghijklmnopqrstuvwxyz+
(PID.TID 0003.0001) //                  0.0: .
(PID.TID 0003.0001) // RANGE I (Lo:Hi:Step):(   359:   722:     1)
(PID.TID 0003.0001) // RANGE J (Lo:Hi:Step):(   722:   359:    -1)
(PID.TID 0003.0001) // RANGE K (Lo:Hi:Step):(   1:   1:   1)
(PID.TID 0003.0001) // =======================================================
(PID.TID 0003.0001) K =   1
(PID.TID 0003.0001) //                I=368     I=378     I=388     I=398     I=408     I=418     I=428     I=438     I=448     I=458     I=468     I=478     I=488     I=498     I=508     I=518     I=528     I=538     I=548     I=558     I=568     I=578     I=588     I=598     I=608     I=618     I=628     I=638     I=648     I=658     I=668     I=678     I=688     I=698     I=708     I=718
(PID.TID 0003.0001) // |--J--|901234567|901234567|901234567|901234567|901234567|901234567|901234567|901234567|901234567|901234567|901234567|901234567|901234567|901234567|901234567|901234567|901234567|901234567|901234567|901234567|901234567|901234567|901234567|901234567|901234567|901234567|901234567|901234567|901234567|901234567|901234567|901234567|901234567|901234567|901234567|901234567|9012
(PID.TID 0003.0001) //    722 ............................................................................................................................................................................................................................................................................................................................................................................
(PID.TID 0003.0001) //    721 ............................................................................................................................................................................................................................................................................................................................................................................
(PID.TID 0003.0001) //    720 pppppppppppppppppppppppppppppppppppppppppppppppppppppppppppppppppppppppppppppppppppppppppppppppppppppppppppppppppppppppppppppppppppppppppppppppppppppppppppppppppppppppppppppppppppppppppppppppppppppppppppppppppppppppppppppppppppppppppppppppppppppppppppppppppppppppppppppppppppppppppppppppppppppppppppppppppppppppppppppppppppppppppppppppppppppppppppppppppppppppppppp
(PID.TID 0003.0001) //    719 pppppppppppppppppppppppppppppppppppppppppppppppppppppppppppppppppppppppppppppppppppppppppppppppppppppppppppppppppppppppppppppppppppppppppppppppppppppppppppppppppppppppppppppppppppppppppppppppppppppppppppppppppppppppppppppppppppppppppppppppppppppppppppppppppppppppppppppppppppppppppppppppppppppppppppppppppppppppppppppppppppppppppppppppppppppppppppppppppppppppppppp
(PID.TID 0003.0001) //    718 pppppppppppppppppppppppppppppppppppppppppppppppppppppppppppppppppppppppppppppppppppppppppppppppppppppppppppppppppppppppppppppppppppppppppppppppppppppppppppppppppppppppppppppppppppppppqqqqqqqqqqqqqqqqqqqqqqqqqqqqqqqqqqqqqqqqqqqqqqqqqqqqqqqqqqqqqqqqqrrrrrrrrrrrrrrrrqqqqqqqqqqqqqqqqqqqqqqqqqqqqqqqqqqqqqqqqqqqqqqqqqqqqqqqqqqqqqqqqqqqqqqqqqqqqqqqqqqqqqqqqqqqqqqqqqqqq
(PID.TID 0003.0001) //    717 ppppppppppppppppppppppppppppppppppppppppppppppppppppppppppppppppppppppppppppppppppppppppppppppppppppppppppppppppppppppppppppppppppppppppppppppppppppppppppqqqqqqqqqqqqqqqqqqqqqqqqqqrrrrrrrrrrrrrrrrrrrrrrrrrrssssssssssssssssssssssssssssssssssssssssssssssssssssssssssssssssssssssssssssssssssssssssssssssssssssssssssssssssssssssssssssssssssssssssssssssssssssssssssssss
(PID.TID 0003.0001) //    716 pppppppppppppppppppppppppppppppppppppppppppppppppppppppppppppppppppppppppppppppppppppppppppppppppppppppppppppppppppppppppppppppppppppppppppppppppppqqqqqqqqqqqqqqqqqqrrrrrrrrrrrsssssssssssttttttttttttttttuuuuuuuuuuuuuuuuuuuuuuuuuuuuuuuuuuuuuuttttttttttttttttttttttttttttttttttttttttttttttttttttttttttttttttttttttttttttttttttttttttttttttttttttttttttttttttttttttttttt
(PID.TID 0003.0001) //    715 ppppppppppppppppppppppppppppppppppppppppppppppppppppppppppppppppppppppppppppppppppppppppppppppppppppppppppppppppppppppppppppppppppppppppppppppppppqqqqqqqqqqqqqqrrrrrrrrrsssssstttttttuuuuuuuuvvvvvvvvvvvvvvvvvvvvvvvvvvvvvvvvvvvvvvuuuuuuuuuuuuuuuuuuuuttttttttttttttttttttttttttttttttttttttttttttttttttttttttttttttttssssssssssssssssssssssssssssssssssssssssssssssssssss
(PID.TID 0003.0001) //    714 pppppppppppppppppppppppppppppppppppppppppppppppppppppppppppppppppppppppppppppppppppppppppppppppppppppppppppppppppppppppppppppppppppppppppppppppppppqqqqqqqqqqqqrrrrrrrrssssstttttuuuuuuvvvvvvvwwwwwwwwwwwwwwwwwwwwwwwwwwwwwwvvvvvvvvvvvvuuuuuuuuuuuuuuutttttttttttttttttssssssssssssssssssssssssssssssssssssssssssssssrrrrrrrrrrrrrrrrrrrrrrrrrrrrrrrrrrrrrrrqqqqqqqqqqqqqqq
(PID.TID 0003.0001) //    713 pppppppppppppppppppppppppppppppppppppppppppppppppppppppppppppppppppppppppppppppppppppppppppppppppppppppppppppppppppppppppppppppppppppppppppppppppppppqqqqqqqqqqqrrrrrrrsssstttttuuuuuvvvvvvwwwwwwwwwwwwwxxxxxxxxxxxxwwwwwwwwwvvvvvvvvuuuuuuuuutttttttttttsssssssssssssssssssssssrrrrrrrrrrrrrrrrrrrrrrrrrrrrrrrrqqqqqqqqqqqqqqqqqqqqqqqqqqqqqqqqqqqqqqqqqqqqqqqqqqqqqqqqqqqq
(PID.TID 0003.0001) //    712 ppppppppppppppppppppppppppppppppppppppppppppppppppppppppppppppppppppppppppppppppppppppppppppppppppppppppppppppppppppppppppppppppppppppppppppppppppppppqqqqqqqqqqqqrrrrrrsssssttttuuuuvvvvvwwwwwwwwwxxxxxxxxxxxxxxxxxxwwwwwwwvvvvvuuuuuuttttttttssssssssssssrrrrrrrrrrrrrrrrrrrrrrrrrqqqqqqqqqqqqqqqqqqqqqqqqqqqqqqqqqqqqqqqqqqqqqqqqqqqqqqqqqqqqqqqqqqqqqqqqqqqqqrrrrrrrrrrr
(PID.TID 0003.0001) //    711 pppppppppppppppppppppppppppppppppppppppppppppppppppppppppppppppppppppppppppppppppppppppppppppppppppppppppppppppppppppppppppppppppppppppppppppppppppppppppqqqqqqqqqqqqqrrrrrsssstttuuuuvvvvwwwwwwwxxxxxxxxxxxxxxxxxxxxwwwwwwvvvvuuuuutttttttsssssssssrrrrrrrrrrrrrrrrrrrrqqqqqqqqqqqqqqqqqqqqqqqqqqqqqqqqqqqqqqqqqqqqqqqqqqqqqqqqqqqqqqqqqqqqqqqqqqqqqqqqqqqqqqqqrrrrrrrrrrrr
(PID.TID 0003.0001) //    710 pppppppppppppppppppppppppppppppppppppppppppppppppppppppppppppppppppppppppppppppppppppppppppppppppppppppppppppppppppppppppppppppppppppppppppppppppppppppppppppppqqqqqqqqqqqrrrrssstttuuuvvvvwwwwwxxxxxxxxxxxxxxxxxwwwwwwwvvvvvuuuuuttttttssssssssrrrrrrrrrrrrrrrrqqqqqqqqqqqqqqqqqqqqqqqqqqqqqqqqqqqqqqqqqqqqqqqqqqqqqqqqqqqqqqqqqqqqqqqqqqqqqqqqqqqqqqqqqqqqqqqqqqqqqqqqqqqq
(PID.TID 0003.0001) //    709 ppppppppppppppppppppppppppppppppppppppppppppppppppppppppppppppppppppppppppppppppppppppppppppppppppppppppppppppppppppppppppppppppppppppppppppppppppppppppppppppppppppqqqqqqqqrrrrssstttuuuvvvwwwwwxxxxxxxxxxxwwwwwwwwvvvvvuuuuuttttttssssssssssrrrrrrrrrrrrrrrqqqqqqqqqqqqqqqqqqqqqqqqqqqqqqqqqqqqqqqqqqqqqqqqqqqqqqqqqqqqqqqqqqqqqqqqqqqqqqqqqqqqqqqqqqqqqqqqqqqqqqqqqqqqqqq
(PID.TID 0003.0001) //    708 ppppppppppppppppppppppppppppppppppppppppppppppppppppppppppppppppppppppppppppppppppppppppppppppppppppppppppppppppppppppppppppppppppppppppppppppppppppppppppppppppppppqqqqqqqqqqrrrrsssstttuuvvvvwwwwwwxxwwwwwwwwwwvvvvvuuuutttttssssssssssssssrrrrrrrrrrrrrrrrqqqqqqqqqqqqqqqqqqqqqqqqqqqqqqqqqqqqqqqqqqqqqqqqqqqqqqqqqqqqqqqqqqqqqqqqqqqqqqqqqqqqqqqqqqqqqqqqqqqqqqqqqqqqqqq
(PID.TID 0003.0001) //    707 ppppppppppppppppppppppppppppppppppppppppppppppppppppppppppppppppppppppppppppppppppppppppppppppppppppppppppppppppppppppppppppppppppppppppppppppppppppppppppppppppppqqqqqqqqqqqqqqqqrrrsssttuuuvvvwwwwxxxxxxxxwwwwwvvvvuuuutttttssssssssssssssrrrrrrrrrrrrrrrrrrqqqqqqqqqqqqqqqqqqqqqqqqqqqqqqqqqqqqqqqqqqqqqqqqqqqqqqqqqqqqqqqqqqqqqqqqqqqqqqqqqqqqqqqqqqqqqqqqqqqqqqqqqqqqqq
(PID.TID 0003.0001) //    706 qqqqqqqqqqqqqqqqqqqqqqqqqqqqqqqqqqqqqqpppppppppppppppppppppppppppppppppppppppppppppppppppppppppppppppppppppppppppppppppppppppppppppppppppppppppppppppppppppppppppppqqqqqqpppppqqqqqqrrrsstttuuvvwwwwxxxxxxxxxxwwwwvvvuuuutttttssssssssssssssrrrrrrrrrrrrrrrrrrrqqqqqqqqqqqqqqqqqqqqqqqqqqqqqqqqqqqqqqqqqqqqqqqqqqqqqqqqqqqqqqqqqqqqqqqqqqqqqqqqqqqqqqqqqqqqqqqqqqqqqqqqqqqqq
(PID.TID 0003.0001) //    705 rrrrrrrrrrrrrrqqqqqqqqrrrrrrrrrrrrrrrrrrrrrqqqqqqqqpppppppppppppppppppppppppppppppppppppppppppppppppppppppppppppppppppppppppppppppppppppppppppppppppppppppppppppppppppqqqqpppppppqqqqqrrrsstttuuvvvwwwwxxxxxxwwwwwvvvuuuutttttssssssssssssssssrrrrrrrrrrrrrrrrrrqqqqqqqqqqqqqqqqqqqqqqqqqqqqqqqqqqqqqqqqqqqqqqqqqqqqqrrrrrrrrrrrrrrrrrrrrrrrrrrrrrrrrrrrrrrrrrrrrrrrrrrrrrrr
(PID.TID 0003.0001) //    704 srrrrrrrrrrrrrrrrrrrrrrrssssssssssssssssssssrrrrqqqqqqpppppppppppppppppppppppppppppppppppppppppppppppppppppppppppppppppppppppppppppppppppppppppppppppppppppppppppppppppppqqqqqppppppqqqqqrrrsssttuuuvvvwwwwwwwvvvvvvuuuuutttttssssssssrrrssssssrrrrrrrrrrrrrrrrrrrqqqqqqqqqqqqqqqqqqqqqqqqqqqqqqqqqqqqqqqqqqqqqrrrrrrrrrrrrssssssssssssssssssssssttttttsssssssssssssssssssst
(PID.TID 0003.0001) //    703 ssrrrrrrqqqqqqqrrrrrrrrssssssssssssssssssssssrrrrrqqqqqqqqqqqppppppppppppppppppppppppppppppppppppppppppppppppppppppppppppppppppppppppppppppppppppppppppppppppppppppppppppppqqqqqqpppppppqqqqrrrssttuuvvvvvvvvvvvvvvvvuuuuttttttssssssssssssssssssssrrrrrrrrrrrrrrrrrrrrqqqqqqqqqqqqqqqqqqqqqqqqqqqqqqqqqqqqqqrrrrrrrrrsssssssssssstttttttttttttttttttttttttttttttttttttttuuu
(PID.TID 0003.0001) //    702 rqqqqqqqqqqqqqqqrrrrrrsssssssssssssssssssssssrrrrrrrrrrrrrrrqqqqqqqqqqqqqqqqqqqqqqqqqqpppppppppppppppppppppppppppppppppppppppppppppppppppppppppppppppppppppppppppppppppppppppppqqqqpppppppqqqqrrsstttuuuvvvvvwwwwwvvvvvuuuuuuttttttssssssssssssssssssssssssrrrrrrrrrrrrrrrrrrrrrrrrrrqqqqqqqqqqqqqqqqqqqqqqqrrrrrrrrrrssssssssssssttttttttttttttttttttttttttuuuuuuuuuuuuuuuu
(PID.TID 0003.0001) //    701 rrrrrrrrrrrrrrqqrrrrrrrrrrrrrrrrssssssssssrrrrrrrrrrrrsssssssssrrrrrrrrrrrrrrqqqqqqqqqqqqqqqqqqpppppppppppppppppppppppppppppppppppppppppppppppppppppppppppppppppppppppppppppppppppqqqppppppqqqqrrsssttttuuuuuvvvvvvvvvvvvvvvuuuuuuutttttttsssssssssssssssssssssssssssssssssssrrrrrrrrrrrrrrrrrrrrrrrrrrrrrrrrrrrrrrrrrrssssssssssssssstttttttttttuuuuuuuuuuuuuuuuuuuuuuuuuuv
(PID.TID 0003.0001) //    700 rrrrrrrsrrrrrrrrrrrrrrrrrqrrrrrrrrrrrrrrrrrrrrrrrrrrrrsssssssssssssssrrrsssssssrrrrrrrrrrrrrrrqqqqqqqqqqqqqqqqqppppppppppppppppppppppppppppppppppppppppppppppppppppppppppppppppppppqqqqpppppqqqqrrsssstttttttuuuuuuuvvvvvvvvvvvvvvvvuuuuuuutttttttttttttttttttttttttttttttttssssssssssssrrrrrrrrrrrrrrrrrrrrrrrrrrrrrrrrrsssssssssssssssssttttttttttttuuuuuuuuuuuuuuuuuuuuuu
(PID.TID 0003.0001) //    699 rrrrrrrrrrrrrrrrsssssrrrrrrrssssrrrrrrrrrrrrrrrrrrrrrrrrrrrrrrrrrrrrrsssssssssssssrrrrrrrrrrrrssssssssssrrrrrrrrqqqqqqqqppppppppppppppppppppppppppppppppppppppppppppppppppppppppppppqqqqqqqqqqqqrrrsssssttttttttuuuuuuvvvvvvvvvwwwvvvvvvvvvuuuuuuuuuuuuuuuuuuuuuuuuuuttttttttttttssssssssssssssrrrrrrrrrrrrrrrrrrrrrrrrrrrrssssssssssssssssssssttttttttttttuuuuuuuuuuuuuuuuu
(PID.TID 0003.0001) //    698 qqqqqrrrrrrrrrrrrrrrrrrrrrrrrrrrrrrrrrrrrrrrrrrrrrrrrrqqqqqqqqqqqqqrrrrrrrrrrsssssrrrrrrrrrrsssssssstttttttssssssrrrrrqqqqqqpppppppppppppppppppppppppppppppppppppppppppppppppppppppppqqqqqqqqqqqrrrrsssstttttttuuuuuuvvvvvvvwwwwwwwwwwwvvvvvvvvvvuuuuuuuuvvvvvuuuuuuuuuuuuuuttttttsssssssssssssssssssssssrrrrrrrrrrrrrrrrrrrrrsssssssssssssssssssssttttttttttttttuuuuuuuuuuu
(PID.TID 0003.0001) //    697 qqqqqqqqqqqqqqqqqqqqqqqqqqrrrrrrrrrrrrrrrrrrrrrrrrrrssssrrrrrrrrrrrrrrrrrrrrrrrrrrrrrqqqrrrrsssssstttttttttttttsssssssrrrrqqqqqqqpppppppppppppppppppppppppppppppppppppppppppppppppppppqqqqqqqqqqrrrrsssttttuuuuvvvvvvvvvvvvwwwwwwwwwwwvvvvvvvvvvvvvvvvvvvvvvvvvvvvvuuuuuuuuuttttttttsssssssssssssssssssssssrrrrrrrrrrrrrrrrrrrssssssssssssssssssssssstttttttttttttttttuuuuuu
(PID.TID 0003.0001) //    696 qqqqqqqqqqqqqqqqqqqqqqqqqqqqqqqqqqqqqqqqqqqqqrrrrrrrrssssssssssssssssssssrrrrrrrrrrrqqqqqqrrrsssssstttttttttttttttttttssssrrqqqqqqqqqppppppppppppppppppppppppppppppppppppppppppppppppqqqqqqqqqqrrrrssssttuuuvvwwwwwwwwwwwwwwwwwwwwwwvvvvvvvvvvvvvvvvvvvvvvvvvvvvvvvvuuuuuuutttttttttttttttttsssssssssssssssssrrrrrrrrrrrrrrrssssssssssssssssssssssssssttttttttttttttttttuuuu
(PID.TID 0003.0001) //    695 qqqqqqqqqqqqqqqqqqqqqqqqqqqqqqqqqqqqqqqqqqqqqqqqqqrrrrrrrrrrrsrsrsssssssrrrrrrrsssssrrrrqqqqqqrrrrssstttttttttttttttttttssrrrqqqqqqqqqqqppppppppppppppppppppppppppppppppppppppppppppqqqqqqqqqqrrrrrssssttuuuvvwwwwwwwwwwwwwwwwwwwwwvvvvvvvvvvvvvvvvvvvvvvuvvvvvvvvvuuuuuuuuutttttttttttttttsssssssssssssssssssssssssssssssssssssssssssssssssssssssssstttttttttttttttttttuuuu
(PID.TID 0003.0001) //    694 rqqqqqqqqqqqqqqrrrrrrrrrrrrrrrrrrrrrrrrrrrrrrrrrrqqqqqqrrrrrrrrrrrrrrrrrrrrrrrrrrssssrrrrssrrrrqqqqrrssssstsssstttttttttsssrrqqqqqqqqqqqqqqqpppppppppppppppppppppppppppppppppppppppqqqqqqqqqqrrrrrrsssstttuuuvvwwwwwwwwwwwwwwwwwwwvvvvvvuuuuuuuuuuuuuuuuuuuuuuuuuuuuuuuuuuuuuuuuttttttttttttssssssssssssssssssssssssssssssssssssssssssssssssssssssstttttttttttttttttttuuuuuu
(PID.TID 0003.0001) //    693 rrrqqqqqrrrrrrrrrrrrrrrrrrrrrrrrrrrrrrrrrrrrrrrrrrrqqqqqrrrrrrrrrrrrrrrrrrrrrrrrrrrrrrrrrsssssrrqqqqqqrrrrssssssstttttttsssrrqqqqqqqqqqqqqqqqqqqqpppppppppppppppppppppppppppppppqqqqqqqqqqqqqrrrrrssssttttuuuvvwwwwwwwwxxxxxxwwwwvvvvvuuuuuuuuuuuuttttttttttttttttttttttuuuuuuuuuutttttttttttttssssssssssssssssssssssssssssssssssssssstttttttttssstttttttttttttttttuuuuuuuuu
(PID.TID 0003.0001) //    692 rrrrrrrrrrrrrrrrrrssrrrrrrrrrrrrrrrrrrrrrrrrrrrrrrrrrqqqrrrrrrrrrrrrrrrrrrrrrrrrrrrrrrrrrrrrrrrrrrrrrqqqqqqrrsssssstttttssrrrqqqqqqqqqqqqqqqqqqqqqqqqppppppppppppppppppppppppqqqqqqqqqqqqqqqrrrrrsssstttuuuuvvwwwwwwxxxxxxxxxwwwvvvvuuuuuttttttttttttttttttttttttttttttttuuuuuuuuuttttttttttttttttttssssssssssssssssssssssssssssssttttttttttttttttttttttttttttttttuuuuuuuuuu
(PID.TID 0003.0001) //    691 ttttttttttttttttttttssssssssssrrrrrrrrrrrrrrrrrrrrrrrrrrrrrrrrrrrrrrrrrrrrrrrrrrrrrrrrrrrrrrrrrrrsssssrrrqqqqqrrsssssttsssrrrqqqqqqqqqqqqqqqqqqqqqqqqqqpppppppppppppppppqqqqqqqqqqqqqqqqqqqrrrrrsssstttuuuvvvvwwwwxxxxxxxxxxwwwvvvvuuuuutttttttttttttttttttttttttttttttttttttttttttttttttttttttttttttttssssssssssssssssssssssssttttttttttttttttttttttttttttttttttuuuuuuuuuuu
(PID.TID 0003.0001) //    690 vvvvvvvvvvvvvvvvvuuuuuutttttsssssssssrrrrrrrrrrrrrrrrrrrrrrrrrrrrrrrrrrrrrrrrrrrrrrrrrrrrrrrrrrrrrrssssssrrqqqqqqrrssssssssrrrqqqqqqqqqqqqqqqqqqqqqqqqqqqqqpppppppqqqqqqqqqqqqqqqqqqqqqqqrrrrrrsssstttttuuuvvvwwwwxxxxxxxwwwvvvvvvuuuuutttttttttttttttttttttttttttttttttttttsssttttttttttttttttttttttttttttttttttttttttttttttttttttttttttttttttttttttttttttttttuuuuuuuuuuuuu
(PID.TID 0003.0001) //    689 xxxxxxxxxxxxxxxxxwwwwwvvvuuuuttttttsssssssssssssssssssssssssssrrrrrrrrrrrrrrrrrrrrrrrrrrrrrrrrrrrrrrrsssssrrrqqqqqqqrrssssssrrrrrrrrrrrrqqqqqqqqqqqqqqqqqqqqqqqqqqqqqqqqqqqqqqqqqqqqqqqrrrrrrrrssstttttuuuvvvwwwwwwwxwwwwvvvvvvvuuuuuuutttttttttttttttttttttttttttttttttttttssssttttttttttttttttttttttttttttttttttttttttttttttttttttttttttttttttttttttttttttuuuuuuuuuuuuuuuu
(PID.TID 0003.0001) //    688 yyyyzzzzzzzzzzzzzzyyyxxxwwwvvvuuuuuttttttttttttttttttttttsssssssssrrrrrrrrrrrrrrrrrrrrrrrrrrrrrrrrrrrrrrrrrrrrrqqqqqqqrrssssssrrrrrrrssssrrqqqqqqqqqqqqqqqqqqqqqqqqqqqqqqqqqqqqqqqqqqrrrrrrrrrssssttttuuuvvvwwwwwwwwwvvvvvvvvvuuuuuuuttttttttttttttttttttttttttttttttttttttttttttttttttttttttttttttttttttttttttttttttttttttttttttttttttttttttttttttttttttuuuuuuuuuuuuuuuuuuu
(PID.TID 0003.0001) //    687 zzzzzzzz+++zzz++++++zzzzyyyxxwwvvvvuuuuuuuuuuuuutttttttttttttssssssrrrrrrrrrrrrrrrrrrrrrrrrrrrrrrrrrrrrrrrrrrrrrrqqqqqqrrssssssrrrrrrrssrrrqqqqqqpppqqqqqqqqqqqqqqqqqqqqqqqqqqqqqrrrrrrrrrrrrsssssttttuuuvvvwwwwwwwwwvvvvvvvuuuuuuuuttttttttttttttttttttttttttttttttttttttttttttttttttttttttttttttttttttttttttttttttttttttttttttttttttttttttttttttttttttuuuuuuuuuuuuuuuuuvvv
(PID.TID 0003.0001) //    686 +++++++++++++++++++++++++zzzyyxxwwwvvvvvvvvvvvvuuuuuuuuuuutttttssssssrrrrrrrrrrrrrrrrrrrrrrrrrrrrrrrrrrrrrrrrrrrrrrqqqqrrssssssrrrrrrrrrrrrqqqqppppppqqqqqqqqqqqqqqqqqqqqqrrrrrrrrrrrrrrrrrrsssssssttttuuvvwwwwwwwwwwwvvvvvvuuuuuuuuttttttttttttttttttttttttttttttttttttttttttttttttttttttttttttttttttttttttttttttttttttttttttttttttttttttttttttttttttuuuuuuuuuuuuuuuuvvvvvv
(PID.TID 0003.0001) //    685 +++....+++++++++++++++....++zzzyyxxxxxxxxxwwwwwvvvvvvvvvuuuuuttttsssssrrrrrrrrrrrrrrrrrrrrrrrrrrrrrrrrrrrrrrrrrrrrrrrrrrrrrrsrrrrrrrrrrrrrqqqqppppppppqqqqqqqqqqrrrrrrrrrrrrrrrrrrrrrrrrrrrsssssssstttttuuvvwwwwwwwwwwwwvvvvvuuuuuuuuuuuuuuuuttttttttttttttttttttttttttttttttttttttttttttttttttttttttttttttttttttttttttttttttttttttttttttttttttttttttuuuuuuuuuuuuuvvvvvvvvvv
(PID.TID 0003.0001) //    684 ++++++++++++++...............+++zzzzzyyzyyyyxxxxwwwwwvvvvvvuuuuuttttsssssssssssssssssrrrrrrrrrrrrrrrrrrrrrrrrrrrrrrrrrrrrrrrrrrrrrrrrrrrrrqqqqpppppppqqqqqqqqqrrrrsssssssssrrrrrrrrrrrrrrrssssssssttttttttuuvvwwwwwwwwwwvvvvvvvvuuuuuuuuuuuuuuuuuuuuuuuuuuuuuuuuutttttttttttttttttttttttttttttttttttttttttttttttttttttttttttttttttttttttttttttttttuuuuuuuuuuvvvvvvvvvvvvvvvv
(PID.TID 0003.0001) //    683 zzzzz+++++++++................++++++++zzzzzzzyyyyyxxxwwwvvvvvuuuuutttssssssssssssssssssssssssrrrrrrrrrrrrrrrrrrrrrrrrrrrrrrrrrrrrrrrrrrrrqqqqqqpppppqqqqqqqqqrrrrrsssssssssrrrrrrrrrrrrrrrssssssssttttttttuuuvvvwwwwwwwwwvvvvvvvvvvvvvvvvvvvvvvvvvvvvvvvvvuuuuuuuuuuuuuuuuuuuttttttttttttttttttttttttttttttttttttttttttttttttttttttttttttttttttuuuuuuuuuuuvvvvwwwwwwwwwwwwvv
(PID.TID 0003.0001) //    682 zzz++++++++...................+++++++++++++zzzzzzzzzzyyxwwwwwvvvvuuuutttttttttttttttttssssssssssrrrrrrrrrrrrrrrrrrrrrrrrrrrrrrrrrrrrrrrrrrqqqqqqqqqqqqqqqqqqrrrrrrrsssssssrrrrrrrrrrrrrrrrrsssssstttttttuuuuvvvvvwwwwwwwwwwwwwwwvvvvvvwwwwwwwwwwwwwvvvvvvvvvvvvvvvvvvvvvuuuuuuuuuuuuuuutttttttttttttttttttttttttttttttttttttttttttttttttttttuuuuuuuuuuvvvvvwwwwwwxxwwwwwwwww
(PID.TID 0003.0001) //    681 zzz++++++++++++....++++++++++++.+++++++++++++++++zzzzzyyyxxxxxxwwwvvvvuuuuuuuuuuuuuttttttttssssssssssssrrrrrrrrrrrrrrrrrrrrrrrrrrrrrrrrrrrrrrrqqqqqqqqqqqqrrrrrrrrrrrrrrrrrrrrrrrrrrrrrrrrrrssssstttttuuuuuvvvvvwwwwwwxxxxxxxxxwwwwwwxxxxxxxxxxxxxxxxxxwwxxxxxwwwwwwwvvvvvvvuuuuvvvuuuuuuuuuuuttttttttttttttttttttttttttttttttttttttttttttttuuuuuuuvvvvvvwwwwwwwxxxxxxwwwwww
(PID.TID 0003.0001) //    680 zz+++++.........++++............++++....++++++++++zzzzzzzzzzzzyyyyxxxxwwwvvvuuuuuuuuuuuuuttttttssssssssssrrrrrrrrrrrrrrrrrrrrrrrrrrrrrrrrrrrrrrrrrrrrrrrrrrrrrrrrrrrrrrrrrrrrrrrrrrrrrrrrrrrrssssstttuuuuuvvvvwwwwxxxxyyyyyyyyyyyyyyyyyyyzzzzzzzzyyyyyyyyyyzzzzzzzzyyxxwwwvvvvvvwwvvvvvvvvvuuuuuuuttttttttttttttttttttttttttttttttttttttttttttuuuuuvvvvvvwwwwwwwwxxxxxwwwwww
(PID.TID 0003.0001) //    679 zz++++++++++++++++......................++++++++++zzzzzzzzzzzzzzzzzzzzzyyyxwwwwvvvvvvuuuuuuuuuttttttsssssssrssssssssssssssrrrrrrrrrrrrrrrrrrrrrrrrrrrrrrrrrrrrrrrrrrrrrrrrrrrrrrrrrrrrrrrrrrrrsssstttuuuvvvwwwxxxyyyyyzzzzzzzzzzzzzzzzzzzzzzzzzzzzzzzzzzzzzzzzzz+++zzyyxxxxxxxxxxxxxwwwwwvvvvuuuuuuuutttttttttttttttttttttttttttttttuuuttttttttuuuuuvvvvvvwwwwwwwwxwwwwwwwww
(PID.TID 0003.0001) //    678 z+++++++++++++++++++....................+++++++++++++++++++++++++++++++zzzzyyyxxwwwwvvvvuuuuuuuuuuttttttsssssssssssssssssssssssssssssssssrrrrrrrrrrrrrrrrrrrrrrrrrrrrrrrrrrrrrrrrrrrrrrrrrrrrssssttuuuvvvwxxyyyyzzzzzzzzzzzz++++++++++++++++++++++++++++++++++++++zzzzyyyyyyyyzyyyyyyyxxxwwvvvvvuuuuuuuuuuttttttttttttttttttuuuuuuuuuuuuuuuuuuuuuuuuuuvvvvvwwwwwwwwwwwwwwwww
(PID.TID 0003.0001) //    677 zzzzzzz++++++++++++++..+................+++++++.....++++++++++++++++++++++zzzzyyyxxxwwwvvvvuuuuuuuuttttttttttttttttttssssssssssssssssssssssssssssssssssssssssssssssssssssssssssssstsssssssssssstttuvvwwxxyyzzzzzzz++++++++++++++++++++++++++++++++++++++++++++++++zzzzzzzzzzzzzzzzzzzzzyyyxxxwwwvvvvuuuuuuuuuuuuuuuuuuuuuuuuuuuuuuuuuuuuuuuuuuuuuuuuuuuuvvvvvwwwwwwwwwwwwwww
(PID.TID 0003.0001) //    676 +++++++++++++++++++++++++++++++++.......++++++.....++.......+++++++++++++++zzzzzzzyyyxxwwwvvvvvuuuuuuuuuuuuuuuuuttttttttttsssssssssttttttttttssssttttttttttssssssssttttttuuuuuuuuuvuuuuuuuuuvvvvvwwxxyyzzzz++++++++++++++++++++++++++++++++++++++++++++++++++++++++++zzzzzz+++++++++++zzzzzyyyxxxwwwvvvvvvvvvvvvvvvvvvvvvvvvvvvvvvvvvvvvvvvvvvvvvvvuuuuuvvvvvvvwwwwwwwwwwwww
(PID.TID 0003.0001) //    675 +++++++++++++++++++++++++++++++++++++++++++....................++++++++++z++++zzzzzzzzzyyxxwwvvvvuuuvuuuuuuvvvvuuuuttttttttttttttttttttttttttttttttttttttttttttttttuuuuvvvvwwwwxxxxxxyyxyxxxxyyyyzzzzz+++++++++++++++++++++++++++++++++++++++++++++++++++++++++++++++++++++++++++++++++++zzzzzyyyxxxxxxwwwwwwwwwwxxxxxwwwwwwwwwwwwwwwwwvvvvvvvvvvvvvvvvvvvvvvvvwwwwwwwwwwwww
(PID.TID 0003.0001) //    674 ++++++++++++++++++++++++++++++++++++++++++.................++++++++++++++++++++++++++++zzzyyxxwwxxxwwwvvvvvwwwwvvuuuuuuutttttttttttttttttttttttttttttttttttttttttuuuvvvwwxxxyyyzzzzzz+zzzzzzzz+++++++++++++++++++++++++++++++++++++++++++++++++++++++++++++++++++++++++++++++++++++++++++++++zzzzzyyyyyyyyyyyyyyyyyyyyyyyyxxxxxxxxxxxxxxwwwwwwwwwwwvvvvvvvvvvvwwwwwwwwwwwwww
(PID.TID 0003.0001) //    673 ++++++++++++++++++++++++++++++++++++++++.....+++++++++++++++++++++++++++++++++++++++zzzzzzzyyzzzzzzzyyxxwwwxxxxxwwvvuuuuuuuuuuuuuuuuuuuuuuuuuuuuuuuuuuuuuuuuuuuuuuvvwwxxyyzzzz++++++++++++++++++++++++++++++++++++++++++++++++++++++++++++++++++++++++++++++++++++++++++++++++++++++++++++++++++zzzzzzzzzzzzzzzzzzzzzzzzzzzzyyyyyyxxxxxxxxxxxwwwwwwwwwwwwwwwwwwwwwwwwwwwwwww
(PID.TID 0003.0001) //    672 +++++++++++++++++++++++++++++++++++++++++++++++++++++++++++++++++++++++++++++++++++zzzzzzzzz++++++++zzzzyxxxxyyyyyxxwwwvwwwvvvvvvvvvuuuuuuuuuuuuuuuuuuuuuuuvvvwwwxxyyyzzzz++++++++++++++++++++++++++++++++++++++++++++++++++++++++++++++++++++++++++++++++++++++++++++++++++++++++++++++++++++++++++++zzzzzzz+++++++++++++zzzzzzzyyyyyyyxxxxxxxxwwwwwwwwwwwxxxxxxxxxxxxwwwww
(PID.TID 0003.0001) //    671 +++++++++++++++++++++++++++++++++++++++++++++++++++++++++..+.++++++++++++++++zzzzzzzzzzzz+++++++++++++++zzzyyyyyyyzzyyxxxxxxxxwwxwwwvvvvvvvvvvvvvwwwvvvvvvvvwxyyzzzz+++++++++++++++++++++++++++++++++++++++++++++++++++++++++++++++++++++++++++++++++++++++++++++++++++++++++++++++++++++++++++++++++++++++++++++++++++++++++++zzzzzzyyyyyyyxxxxxxxxxxxxxxxxxxxxxxxxxxxxwwww
(PID.TID 0003.0001) //    670 ++++++++++++++++++++++++++++++++++++++++++++++++++++............++++++++++++++++zz++++++++++++++++++++++++++zzzzzzzzzzzzzzzzzzzzzzyyxxxxxxwwwxxxxxxxxxxxxxxyyzzz+++++++++++++++++++++++++++++++++++++++++++++++++++++++++++++++++++++++++++++++++++++++++++++++++++++++++++++++++++++++++++++++++++++++++++++zzz+++++++++++++++++zzzzzzzyyyyyyxxxxxxxxxxxxxxxxxxxxxxxxxxxwww
(PID.TID 0003.0001) //    669 ++++++++++++++++++++++++++++++++++++++++++++++++...........++++++++++++++++++++++++++++++++++++++++++++++++++++++++++++++++++++++++zzzzzzzzzzzzzyyyyyzzzzzzz++++++++++++++++++++++++++++++++++++++++++++++++++++++++++++++++++++++++++++++++++++++++++++++++++++++++++++++++++++++++++++++++++++++++++++++++++zzzzzzz++++++++++++++zzzzzzzzzyyyyyyyxxxxxxyxxxxxxxxxxxxxxxxxw
(PID.TID 0003.0001) //    668 ++++++++++++++++++++++++++++++++++++++++++++++.........................++++++++++++++++++++++++++++++++++++++++++++++++++++++++++++++++++++++++++zzzzz++++++++++++++++++++++++++++++++++++++++++++++++++++++++++++++++++++++++++++++++++++++++++++++++++++++++++++++++++++++++++++++++++++++++++++++++++++++++++zzzzzz++++++++++++++zzzzzzzzzzzzzzyyyyyyyyyyyxxxxxxxxxxxxxxx
(PID.TID 0003.0001) //    667 +++++++++++++++++++++++++++++++++++++++++++++++....................+++++++.............+++++++++++++++++++++++++++++++++++++++++++++++++++++++++++++++++++++++++++++++++++++++++++++++++++++++++++++++++++++++++++++++++++++++++++++++++++++++++++++++++++++++++++++++++++++++++++++++++++++++++++++++++++++++++++zzzzzz++++++++++++zzzzzzzzzzzzzzzzzzzzyyyyyyxxxxxxxxxxxxxx
(PID.TID 0003.0001) //    666 +++++++++++++++++++++++++++++++++++++++..........+........................................++++++++++++++++++++++++++++++++++++++++++++++++++++++++++++++++++++++++++++++++++++++++++++++++++++++++++++++++++++++++++++++++++++++++++++++++++++++++++++++++++++++++++++++++++++++++++++++++++++++++++++++++++++++++++zzzzzz+++++++++zzzzzzzzzzzzzzzzzzzzzzzzyyyyxxxxxxxxxxxyy
(PID.TID 0003.0001) //    665 +++++++++++++++.++++.+++......+++.....++++...................................................+++++++++++++++++++++++++++++++++++++++++++++++++++++++++++++++++++++++++++++++++++++++++++++++++++++++.+++++++++++++++++++++++++++++++++++++++++++++++++++++++++++++++++++++++++++++++++++++++++++++++++++++++++++++++++++++zzzzzzzzzzzzzzzzzzzzzzzzzzzzzzzzzzzyyyyyyyyyyyyyyy
(PID.TID 0003.0001) //    664 +++++++++++++.++........+..+...........++..................................................++....+++++++++++++++++++++++++++++++++++++++++++++++++++++++++++++++++++++++++++++++++++++++++++++++.........++++.......+++++++++++++++++++++++++++++++++++++++++++++++++++++++++++++++++++++++++++++++++++++++++++++++++++++++++++++++zz+++++++zzzzzzzzzzzzzzzzzzzzzzzzzzzzzzzz
(PID.TID 0003.0001) //    663 ++++.................................++......................................................++++++++++++++++++++++++++++++++++++++++++++++++++++++++++++++++++++++++++++++++++++++++++++.+++++............+.+....++++.......+++++++++++++++++++++++++++++++++++++++++++++++++++++++++++++++++++++++++++++++++++++++++++++++++++++++++++++++++zzzzzzzzzzzzzzzzzzzz++++++zzzz
(PID.TID 0003.0001) //    662 .......................................+++......................................................++++++++++++++++++++++++++++++++++++++++++++++++++++++++++++++++++++++++++++++++++++++++++++..++..................++........++++++..+++...++++++++++++++++++++++++++++++++++++++++++++++++++++++++++++++++++++++++++++++++++++++++++++++++++++++zzzzzzzzzzzzzz+++++++++++zzz
(PID.TID 0003.0001) //    661 .........................................++...................................................+++++++++++++++++++++++++++++++++++++++++++++++++++++++++++++++++++++++++++++++++++++++++++++++++.....................+++++..+++++++++..............++++++++++++++++++++++++++++++++++++++++++++++++++++++++++++++++++++++++++++++++++++++++++++++++zzzzzzz++++++++++zzzzzzzzz
(PID.TID 0003.0001) //    660 ..........................................................................................++++++++++++++++++++++++++++++++++++++++++++++++++++++++++++++++++++++++++++++++++++++++++++++++++++++++.....+++.++++++++...++++++++++++++++++++........++++++++++++++++++++++++++++++++++++++++++++++++++++++++++++++++++++++++++++++++++++++++++++++++++++++++++++++++zzzzzzzzzz
(PID.TID 0003.0001) //    659 ......................................................................................+++++++++++++++++++++++++++++++++++++++++++++++++++++++++++++++++++++++++++++++++++++++++++++++++++++++++++++++++++++.+.+....++++++++++++++++++++++++++++++++++++++++++++++++++++++++++++++++++++++++++++++++++++++++++++++++++++++++++++++++++++++++++++++++++++++++++++++++++++++++z
(PID.TID 0003.0001) //    658 .................................................................................+++++++++.....++++++++++++++++++++++++++++++++++++++++++++++++++++++++++++++++++++++++++++++++++++++++++++++++++++++++++++++.+.++++++++++++++++++++++++++++++++++++++++++++++++++++++++++++++++++++++++++++++++++++++++++++++++++++++++++++++++++++++++++++++++++++++++++++++++++++++++++++
(PID.TID 0003.0001) //    657 ................................................................................+++++++++++++++++++++++++++++++++++++++++++++++++++++++++++++++++++++++++++++++++++++++++++++++++++++++++++++++++++++++++++...+.++++++++++++++++++++++++++++++++++++++++++++++++++++++++++++++++++++++++++++++++++++++++++++++++++++++++++++++++++++++++++++++++++++++++++++++++++++++++++++
(PID.TID 0003.0001) //    656 ............................................................................++++++...+++++++++++++++++++++++++++++++++++++++++++++++++++++++++++++++++++++++++++++++++++++++++++++++++++++++++++++++++++++++++++++++++++++++++++++++++++++++++++++++++++++++++++++++++++++++++++++++++++++++++++++++++++++++++++++++++++++++++++++++++++++++++++++++++++++++++++++++++++++++
(PID.TID 0003.0001) //    655 ........................................................................+++++++++++++..........++++++.....++++++++++++++++++++++++++++++++...++++++++++++++++++++++++++++++++++++++++++++++++++++++++++++++++.........++++++++++++++++++++++++++++++++++++++++++++++++++++++++++++++++++++++++++++++++++++++++++++++++++++++++++++++++++++++++++++++++++++++++++++++++++++++
(PID.TID 0003.0001) //    654 .....................................................................+++++++++++..............++++.................+++++++++++++++++++++........+.+++.....+++++++++++++++++++++++++++++++++++++++++++++++++++++........+++++++++++++++++++++++++++++++++++++++++++++++++++++++++++++++++++++++++++++++++++++++++++++++++++++++++++++++++++++++++++++++++++++++++++++++++++++
(PID.TID 0003.0001) //    653 .................................................................++.++.........................+....................+++++++++++++++++++++...........+.........++++++++++++++++++++++++++++++++++++++++++++++++++++++++++++++++++++++++++++++++++++++++++++++++++++++++++++++++++++++++++++++++++++++++++++++++++++++++++++++++++++++++++++++++++++++++++++++++++++++++++++++
(PID.TID 0003.0001) //    652 ...............................................................................................+..........................+......++++++............+......++++++++++++++++++++++++++++++++++++++++++++++++++++++++++++++++++++++++++++++++++++++++++++++++++++++++++++++++++++++++++++++++++++++++++++++++++++++++++++++++++++++++++++++++++++++++++++++++++++++++++++++++++
(PID.TID 0003.0001) //    651 ...............................................................................................+..........................................++++.....+.++++++..++++++++++++++++++++++++++++++++++++++++++++++++++..........+++++++++++++++++++++++++++++++++++++++++++++++++++++++++++++++++++++++++++++++++++++++++++++++++++++++++++++++++++++++++++++++++++++++++++++++++++
(PID.TID 0003.0001) //    650 ...............................................................................................................................................+++++++++++....+++++++++++++++++++++++++++++++++++++++++.....................++++++++.+++++++++++++++++++++++++++++++++++++++++++++++++++++++++++++++++++++++++++++++++++++++++++++++++++++++++++++++++++++++++++++++++++++++
(PID.TID 0003.0001) //    649 ....................................................................................................................................................++....++..+++++++++++++++++++++++++++++++++++++++++++++.....................+++++...........++++++++++++++++++++++++++++++++++++++++++++++++++++++++++++++++++++++++++++++++++++++++++++++++++++++++++++++++++++++++++++
(PID.TID 0003.0001) //    648 ......................................................................................................................................................+.....++++++++++++++++.++++++++++++++++++++++++++......................+++++++..........++..++++++++++++++++++++++++++++++++++++++++++++++++++++++++++++++++++++++++++++++++++++++++++++++++++++++++++++++++++++++++++
(PID.TID 0003.0001) //    647 ......................................................................................................................................................+......++++++++++++++...+++++++++++++++++++++++++......................................+.+++++++++++++++++++++++++++++++++++++++++++++++++++++++++++++++++++++++++++++++++++++++++++++++++++++++++++++++++++++++++++++
(PID.TID 0003.0001) //    646 ......................................................................................................................................................+........+++++++++++.......+++..........+++++...+............................................++.++++++++++++++++++++++++++++++++++++++++++++++++++++++++++++++++++++++++++++++++++++++++++++++++++++++++++++++++++....
(PID.TID 0003.0001) //    645 ................................................................................................................................................................+++++++++.......................++.......................................................++++++++++++++++++++++++++++++++++++++++++++++++++++++++++++++++++++++++++++++++++++++++++++++++++++++++++++.......
(PID.TID 0003.0001) //    644 ....................................................................................................................................................................++++..................................................................................+++++......................+++++++++++++++++++++++++++++++++++++++++++++++++++++++++++++++++++++++++++++++++++++++
(PID.TID 0003.0001) //    643 .........................................................................................................................................................................................................................................................................................+++++++++++++++++++++++++++++++++++++++++++++++++++++++++++++++++++++++++++++++++++
(PID.TID 0003.0001) //    642 ..........................................................................................................................................................................................................................................................................................++++++++++++++++++++++++++++++++++++++++++++++++++++++++++++++++++++++++++++++++++
(PID.TID 0003.0001) //    641 .........................................................................................................................................................................................................................................................................................+++++++++++++++++++++++++++++++++++++++++++++++++++++++++++++++++++++++++++++++++++
(PID.TID 0003.0001) //    640 ........................................................................................................................................................................................................................................................................................++++++++++++++++++++++++++++++++++....++++++.........++.++++++++++++++++++++++++++++
(PID.TID 0003.0001) //    639 ...........................................................................................................................................................................................................................................................................................++.+++++.+......+++++++++++++.++++.+++++++........................+++++++++++++++
(PID.TID 0003.0001) //    638 .............................................................................................................................................................................................................................................................................................++++.........................+.++++++++++..............................++++++++
(PID.TID 0003.0001) //    637 ..............................................................................................................................................................................................................................................................................................++.............................+++++++++..................................++++
(PID.TID 0003.0001) //    636 ...............................................................................................................................................................................................................................................................................................+...............................++++++.....................................++
(PID.TID 0003.0001) //    635 ..............................................................................................................................................................................................................................................................................................+.............................................................................
(PID.TID 0003.0001) //    634 ............................................................................................................................................................................................................................................................................................................................................................................
(PID.TID 0003.0001) //    633 ............................................................................................................................................................................................................................................................................................................................................................................
(PID.TID 0003.0001) //    632 ............................................................................................................................................................................................................................................................................................................................................................................
(PID.TID 0003.0001) //    631 ............................................................................................................................................................................................................................................................................................................................................................................
(PID.TID 0003.0001) //    630 ............................................................................................................................................................................................................................................................................................................................................................................
(PID.TID 0003.0001) //    629 ............................................................................................................................................................................................................................................................................................................................................................................
(PID.TID 0003.0001) //    628 ............................................................................................................................................................................................................................................................................................................................................................................
(PID.TID 0003.0001) //    627 ............................................................................................................................................................................................................................................................................................................................................................................
(PID.TID 0003.0001) //    626 ...........................................................................................................................................................................................................................................................................................................................................................................+
(PID.TID 0003.0001) //    625 ..........................................................................................................................................................................................................................................................................................................................................................................++
(PID.TID 0003.0001) //    624 ..........................................................................................................................................................................................................................................................................................................................................................................++
(PID.TID 0003.0001) //    623 ...........................................................................................................................................................................................................................................................................................................................................................................+
(PID.TID 0003.0001) //    622 ...........................................................................................................................................................................................................................................................................................................................................................................+
(PID.TID 0003.0001) //    621 ...........................................................................................................................................................................................................................................................................................................................................................+.............+++
(PID.TID 0003.0001) //    620 ..............................................................................................................................................................................................................................................................................................................................................................++.......+++++
(PID.TID 0003.0001) //    619 ...........................................................................................................................................................................................................................................................................................................................................................++....+++++++++++
(PID.TID 0003.0001) //    618 ...............................................................................................................................................................................................................................................................................................................................................................++.++++++++++
(PID.TID 0003.0001) //    617 ...................................................................................................................................................................................................................................................................................................................................................................+++++++++
(PID.TID 0003.0001) //    616 ....................................................................................................................................................................................................................................................................................................................................................................++++++++
(PID.TID 0003.0001) //    615 ...................................................................................................................................................................................................................................................................................................................................................................+++++++++
(PID.TID 0003.0001) //    614 ....................................................................................................................................................................................................................................................................................................................................................................++++++++
(PID.TID 0003.0001) //    613 .......................................................................................................................................................................................................................................................................................................................................................................+++++
(PID.TID 0003.0001) //    612 .............................................................................................................................................................................................................................................................................................................................................................+.........+++++
(PID.TID 0003.0001) //    611 .........................................................................................................................................................................................................................................................................................................++++................................................+.........+++++
(PID.TID 0003.0001) //    610 ......................................................................................................................................................................................................................................................................................................++++++...............................................+++++++++++++++++
(PID.TID 0003.0001) //    609 ......................................................................................................................................................................................................................................................................................................+++++............................................+++++++++++++++++++++
(PID.TID 0003.0001) //    608 ....................................................................................................................................................................................................................................................................................++++.+++.........+++++........................................++++++++++++zzz+++++++++++
(PID.TID 0003.0001) //    607 .............................................................................................................................................................................................................................................................................++++++++++++++........+++++++.....................................++++++++++zzzyyxxxyyyzz++++++
(PID.TID 0003.0001) //    606 ............................................................................................................................................................................................................................................................................+++++++++++++........+++++++.+..................................++++++++++zzyxxxwwvvvvvwyzz+z+++
(PID.TID 0003.0001) //    605 ..........................................................................................................................................................................................................................................................................++++++++++++++++.....+++++++++...................................++++++++zyyxxwwwvvvutttuvwwxyzz++
(PID.TID 0003.0001) //    604 .........................................................................................................................................................................................................................................................................++++++++++++++++++..++++++++++++...............................+++++++zzzzywvvuuuutttsssstttttvwxyz
(PID.TID 0003.0001) //    603 .......................................................................................................................................................................................................................................................................++++++++++++++++++++++++++++++.....................++..++......+++++zyxxxxxwvutsssssssssssssssstuwxxy
(PID.TID 0003.0001) //    602 .....................................................................................................................................................................................................................................................................+++++++++++++++++++++++++++++...............+++..+++++++++++...++yxwywvuutuuuttssrrrrrrrrrrrrsssstuvwwx
(PID.TID 0003.0001) //    601 ....................................................................................................................................................................................................................................................................+++++++++zzzz++++++++++++++++..........+..+++++.++++++++++z+++.++zxvutttssssssrrrrrrrrrrrrrrrrrrssttvxxx
(PID.TID 0003.0001) //    600 ..................................................................................................................................................................................................................................................................++++++++++zzzzz++++++++++++++........++++++.+++++++++++yyxwxyyz+++zxvttssssrrrrrrrrrrrrrrrrrrrrrrrrrsstvvv
(PID.TID 0003.0001) //    599 ..............................................................................................................................................................................................................................................++++++..++..........++++++++++zzzzz+++++++++++++.........++++++++++++zyyyxvttttuuuvxzyxvuttssrrrrrrrrrrrrrrrrqqqrrrrrrrrrrssss
(PID.TID 0003.0001) //    598 .....................................................................................................................................................................................................................v++++++++++++.++++..+++.++++++++++++.............++++++zzzz+++++++++++............++++++++z++zxwtstsrrrrsstvxzzyxwutssrrrrrrrrrrrrqqqqqqqqqqrrrrrrrrrrr
(PID.TID 0003.0001) //    597 ..................................................................................................................................................................................................................z++++++++++++++++++++++++++++++++++++.++....++++++++++++++zzz+++++++++++...........+++++++++wsyzyxwurrrrrrrrssuxzzyxwvutsrrrrrrrrrqqqqqqqqqqqqqqqqrrrrrrrr
(PID.TID 0003.0001) //    596 .................................................................................................................................................................................................................++++++++++++++++++++++++++++++++++++++++++++++++++++++++++zzz+++++++++++............++++..++vrrsssrrrrqqqqrrrstuwyzyyxwutsrrrrrrqqqqqqqqqqqqqqqqqqqqqrrrrrr
(PID.TID 0003.0001) //    595 ...............................................................................................................................................................................................................++++++++++++++++++++++++++++++++++++++++++++++++++++++++zzzzz+++++++++++............+++++++zxsrrqqqrrqqqqqqqrrrsuwxyzyyxwvusrrrrrqqqqqqqqqqqqqqqqqqqqqqqqrrrr
(PID.TID 0003.0001) //    594 .............................................................................................................................................................................................................+++++++++++++++++++++++++++++++++++++++++++++++++++zzzzzzzzzzz+++++++++++............+++++++zurrrrqqqqqqqqqqqqrrrruwyyyyyxxwusrrrrqqqqqqqqqqqqqqqqqqqqqqqqqqqqr
(PID.TID 0003.0001) //    593 ............................................................................................................................................................................................................++++++++++++++++++++++++++++++++++++++++++++++++zzzzzzzzzzzzzz++++++++++.............+++++++zxsrrrrqqqqqqqqqqqqqrrrsuxyyyyxwvtrrrqqqqqqqqqqqqqqqqqqqqqqqqqqqqqqq
(PID.TID 0003.0001) //    592 ............................................................................................................................................................................................................+++++++++++++++++++++++++++++++++++++zzzzzzzzzzzzzzzzzzzzzzzzz++++++..................++.+++zvsrrrrrqqqqqqqqqqqqqrrrstvxyyxwvsrrrqqqqqqqqqqqqqqqqqqqqqqqqqqqqqqq
(PID.TID 0003.0001) //    591 .........................................................................................................................................................................................................+++++++++++++++++++++++++++++++++++++++zzzzzzzzzzzzzzzzzzzzzzzz++++++........................+zwtssrrrrrrqqqqqqqqqqrrrsstuxxxwvusrrqqqqqqqqqqqqqqqqqqqqqqqqqqqqqqqq
(PID.TID 0003.0001) //    590 .......................................................................................................................................................................................................+++++++++++++++++++zz++++++++++++++++++++zzzzzzzzzzzzzzzyyyyyzzz+++++++.......................++yvssssssrrrqqqqqqqqqqrrrstvwxxxwvvtrqqqqqqqqqqqqqqqqqqqqqqqqqqqqqqqqq
(PID.TID 0003.0001) //    589 .....................................................................................................................................................................................................++++++++++++++++++++zzzzzz++++++++++++++++++zzzzzzzzzzzzyyyyyyzzz+++++++........................+zxusttssssrrqqqqqqqqqqqrrsuvxxxwvuutsqqqqqqqqqqqqqqqqqqqqqqqqqqqqqqqqq
(PID.TID 0003.0001) //    588 ...................................................................................................................................................................................................++++++++++++++++++++zzzzzzzzz+++++++++++++++++++zzzzzzzzyyyyyyyzz++++++++.........................+zxsssrrrssrqqqqqqqqqqqqrrsuvwxxwutsrrqqqqqqqqqqqqqqqqqqqqqqqqqqqqqqqqq
(PID.TID 0003.0001) //    587 ..................................................................................................................................................................................................+++++++++++++++zzzzzzzzzzzzzzzzzzz++++++++++++zzz+zzzzzzzyyyyyyyzz++++++............................+zusrrrrrrqqqqqqqqqqqqqqrrtvvwwvutrqqqqqqqqqqqqqqqqqqqqqqqqqqqqqqqqqqq
(PID.TID 0003.0001) //    586 .................................................................................................................................................................................................+++++++++++++++zzzzzz++zzzzzzzzzzzzzzzzzzzz++zzzzzzzzzzzzzzyyyyyyzz++++++.........................+++.+ytrpqqrrrqqqqqqqqqqqqqrrsuuwuutrrqqqqqqqqqqqqqqqqqqqqqqqqqqqqqqqqqqq
(PID.TID 0003.0001) //    585 ................................................................................................................................................................................................+++++++++++++++zzzzz+zzzzzzzzzzzzzzzzzzzzzzzzzzzzzzzzzzzzzzzyyyyyyyz+++++.........................+++.+zwsqppqrrqqqqqqqqqqqqqqqrrsuvutsrqqqqqqqqqqqqqqqqqqqqqqqqqqqqqqqqqqqq
(PID.TID 0003.0001) //    584 ..............................................................................................................................................................................................+++++++++++++++++zzzzzzzzzzzzzzzzzzzzzzzzzzzzzzzzzzzzzzzzzzzzzzyyyyyzz++++.........................++zyyyuspqqpqrrrqqqqqqqqqqqqqqqrrtvtsrqqqqqqqqqqqqqqqqqqqqqqqqqqqqqqqqqqqqq
(PID.TID 0003.0001) //    583 ...........................................................................................................................................................................................++++++++++++++++++zzzzzzzzzzyyyzzzz+zzzzzzzzzzzzzzzzzzzzzzzzzzzzzzzzyyyzz++++........................++zvtsutrnoprtxywusqqppqqqqqqqqqqrssrrqqqqqqqqqqqqqqqqqqqqqqqqqqqqqqqqqqqqqq
(PID.TID 0003.0001) //    582 ..........................................................................................................................................................................................++++++++++++++++++zzzzzzzzzzzyyyyyyzzzzz++zzyyyyzzzzzzzzzzzzzzzzzzzzzzyyzz++++........................+zwtqqqomllmprvz++zwrrqqqpqqqqqqqrsrrqqqqqqqqqqqqqqqqqqqqqqqqqqqqqqqqqqqqqqq
(PID.TID 0003.0001) //    581 .......................................................................................................................................................................................+++++++++++++++++++++z+++++++++zzyyxxxyyyyyzzyyyyyyyyyzzzzzzzzzzzzzzzzzzzzzzzz+++.........................+zuqqqpmlmlmmmpwz++zzxsqpqqqqqqqqssrqqqqqqqqqqqqqqqqqqqqqqrtuuvwwvusrqqqqqq
(PID.TID 0003.0001) //    580 ......................................................................................................................................................................................++++++++++..++++++++++++++++++++++zyyxxwxxxxxxyyyyyyyyyyyyzzzzzzzzzzzzzzzzzzzzz++++.........................+ytrponlmnnlkjikw++zz+ytqqqpqqqrturqqqqqqqqqqqqqqqqqqqqrvyzyxwwwwyyxvtrqqq
(PID.TID 0003.0001) //    579 .........................................................................................................................................................................................++++++++++++++++++++++++++++++++zyxxwwwwwwxxxxxxyyyyyyyyyyzzzzzzzzzzzzzzzzzz++++.....................+..++yuronmlmnonlkkmouzzx+++yurqqqqqrssrqqqqqqqqqqqqqqqqqrsuxxwvvvutvxyyzxvrqq
(PID.TID 0003.0001) //    578 ............................................................................................................................................................................................++++.++++++++++++++++++++++++zyxxwwwwwwwxxxxxxyyyyyyyyyyyzzzzzzzzzzzzzzzz++++..................++++zyyxwtqnmlmooponnmkmpruvvwwyzxtrqqrrrrsrqqqqqqqqqqqqrrrsrrrrrqqqrrrrtuwxzzwsq
(PID.TID 0003.0001) //    577 .............................................................................................................................................................................................+.++++++....+++++++++++.++++zyxwwwwwwwwwwxxxxxxxyyyyyyyyyyzzzzzzzzzzzzzz+++++...............+++zzxussuvspmlnoppppponnkkkmoqrsuwwxxurqrrrrrrrqqqqqqqqqrrrrqqqqqqqqqqqqstuvwxzzxt
(PID.TID 0003.0001) //    576 ............................................................................................................................................................................................+...z++.+......++++++++++++++zyxwwwwwwwwwwwwwwxxxxxxxxyyyyyyyyyyyyyyzzzz++++++...............++zxwtrrsttqmkmopqqqpppponmkkjkmpqsstwvutrrrrrrqqqqqqqqqqqqqqqqqqqqqqqqqqrstuuuxzyw
(PID.TID 0003.0001) //    575 ..............................................................................................................................................................................................++++.++.......+++++++.+.+++zyxwwwwwwwwwwwwwwwwwxxxxxxyyyyyyyyyyyyyzzzz++++++...............++yxttqqrqnkikorrrrrqqpppoomlljjjloqrtuvxusrrssqqqqqqqqqqqqqqqqqqqqqqqqqqqrssstvyyx
(PID.TID 0003.0001) //    574 ..............................................................................................................................................................................................................+++.++..++++zxwwwwwwwwwwwwwwwwwwxxxxxxyyyyyyyyyyyyzzzz++++++...............++wssrqppmihhknpqrssrrqppponnmmlkjjnqsttvvvxuttsrqqqqqqqqqqqqqqqqqqqqqqqqqrrssstwyy
(PID.TID 0003.0001) //    573 .............................................................................................................................................................................................................+++++.....+++zyxwwwwwwwwwwwwwwwwwwwxxxxxyyyyyyyyyyzzzzz++++++............+++++wsssrpnjghiklnprssssrqqppooonnmlkkknqrtuvxzxwxwwwxwurqqqqqqqqqqqqqqqqqqqqsssttvyy
(PID.TID 0003.0001) //    572 ..............................................................................................................................................................................................................++++.....+++zyyxwwwwwwwwwwwwxxxxxxxxxxxxyyyyyyyyzzzzzz+++++++........+++z+zzzyussrnjhhjklmnoqrssssrqppooooonmmlkkklmquwyvuvwzz+.+zyvtrrqqqqqqqqqqqpqqrstuvvwyx
(PID.TID 0003.0001) //    571 ...............................................................................................................................................................................................................+++....+++++zyxxwwwwwwwwxxxxxxxxxxxxxxxxyyyyyyyyzzzzzz++++++........++xvxwvwxurolihjkllmmnnopqqrrqqpopoooooonnmmmmkklopprrrtvyz+++++zzwtsssrrrqqqqqqrstvwwxyx
(PID.TID 0003.0001) //    570 ..............................................................................................................................................................................................................+.......+++++zyyxwwwwwwwxxxxxxxxxxxxxxxxyyyyyyyyyzzzzzzz++++++........zwsttuvvrmihjkllmmmmnmnnoopppppopqpppoooonnnpooniilnopqrtxz+++zzyyyyzzyxwvtuuvwwwvwyz+zy
(PID.TID 0003.0001) //    569 ...............................................................................................................................................................................................................++.....+++++zyyxxwwwwwwwxxxxxxxxxxxxxxyyyyyyyyyyzzzzzzz++++++.......++wsssttrnihkllmmmmmmmlmnnnnoooqqpqqqpqqqponnopppoljijmnopsuuxyuuwyzzzzzzzyyyzyyyyyyz++zx
(PID.TID 0003.0001) //    568 ..............................................................................................................................................................................................................+++.....+++++zyyxxwwwwwwwwxxxxxxxxxxxxxyyyyyyyyyyyzzzzzzzz++++......++zwtssssqmhkllmmmmmmmmmmnnnnnnopqqqrrqqqqpoonoppopnnljihjlooprsssuwxyzzxxxwz+++++zyyzzywv
(PID.TID 0003.0001) //    567 .............................................................................................................................................................................................................+++++....+++++zyxxxxwwwwwwwxxxxxxxxxxxxxxxyyyyyyyyyyzzzzzzzzz++.....++zyvtssrrqjillmmmmmmmmmmnnnnnnnnopqqrtrsqqpooooooonnoonljihijkmopqrssvywtrrwwxxyzz+zyyyyxx
(PID.TID 0003.0001) //    566 ............................................................................................................................................................................................................+++++++....++++zyyyyxxxxxxwwxxxxxxxxxxxxxxxxxyyyyyyyyyzzzzzzzzz+...+++zzxutsrpmlhjllmmmmmmmmmmmmmmmmmnnopqsttsrqqpoooooonnqnnmlllkjihhjjkoprqpoopprrttvyyz+zxwwx
(PID.TID 0003.0001) //    565 ............................................................................................................................................................................................................+++++++.....+++zzzyyyxxxxxxxxxxxxxxxxxxxxxxxxxyyyyyyyyyyyyyyyzz+++++++zywtrqoljhillmmmmmmmllllllllmmmmnnoqstttrrrsrppponnnnnnnmmmmmlkihhihjjkjknmnooppqstuvutrrq
[...]
(PID.TID 0003.0001)  cg2d: iter=   869 ; resid.=  1.43178256562030E+12
(PID.TID 0003.0001)  cg2d: iter=   870 ; resid.=  1.40886721214473E+13
(PID.TID 0003.0001)  cg2d: iter=   871 ; resid.=  1.18911167535825E+12
(PID.TID 0003.0001)  cg2d: iter=   872 ; resid.=  3.57117417282748E+12
(PID.TID 0003.0001)  cg2d: iter=   873 ; resid.=  1.42020646208887E+12
(PID.TID 0003.0001)  cg2d: iter=   874 ; resid.=  1.48413083307856E+12
(PID.TID 0003.0001)  cg2d: iter=   875 ; resid.=  3.16260736858416E+12
(PID.TID 0003.0001)  cg2d: iter=   876 ; resid.=  1.45386972114022E+12
(PID.TID 0003.0001)  cg2d: iter=   877 ; resid.=  4.28698957876994E+13
(PID.TID 0003.0001)  cg2d: iter=   878 ; resid.=  1.28477188069711E+12
(PID.TID 0003.0001)  cg2d: iter=   879 ; resid.=  4.15370128901780E+12
(PID.TID 0003.0001)  cg2d: iter=   880 ; resid.=  1.14281081652825E+12
(PID.TID 0003.0001)  cg2d: iter=   881 ; resid.=  1.09575139369912E+13
(PID.TID 0003.0001)  cg2d: iter=   882 ; resid.=  1.50530624030096E+12
(PID.TID 0003.0001)  cg2d: iter=   883 ; resid.=  1.60331179702278E+12
(PID.TID 0003.0001)  cg2d: iter=   884 ; resid.=  1.28423839398077E+12
(PID.TID 0003.0001)  cg2d: iter=   885 ; resid.=  3.43145449010497E+12
(PID.TID 0003.0001)  cg2d: iter=   886 ; resid.=  1.28723633927712E+12
(PID.TID 0003.0001)  cg2d: iter=   887 ; resid.=  2.38313222568000E+12
(PID.TID 0003.0001)  cg2d: iter=   888 ; resid.=  1.32019550331822E+12
(PID.TID 0003.0001)  cg2d: iter=   889 ; resid.=  6.32432488159517E+12
(PID.TID 0003.0001)  cg2d: iter=   890 ; resid.=  1.08377184464686E+12
(PID.TID 0003.0001)  cg2d: iter=   891 ; resid.=  4.06892092561795E+12
(PID.TID 0003.0001)  cg2d: iter=   892 ; resid.=  1.49543604482825E+12
(PID.TID 0003.0001)  cg2d: iter=   893 ; resid.=  4.63496134457899E+12
(PID.TID 0003.0001)  cg2d: iter=   894 ; resid.=  1.20251401809060E+12
(PID.TID 0003.0001)  cg2d: iter=   895 ; resid.=  5.39446652714827E+12
(PID.TID 0003.0001)  cg2d: iter=   896 ; resid.=  1.14907458255279E+12
(PID.TID 0003.0001)  cg2d: iter=   897 ; resid.=  5.99448226762777E+13
(PID.TID 0003.0001)  cg2d: iter=   898 ; resid.=  1.42054127793685E+12
(PID.TID 0003.0001)  cg2d: iter=   899 ; resid.=  3.78278068836316E+12
(PID.TID 0003.0001)  cg2d: iter=   900 ; resid.=  1.29059202556627E+12
(PID.TID 0003.0001)  cg2d: iter=   901 ; resid.=  1.21343439660729E+13
(PID.TID 0003.0001)  cg2d: iter=   902 ; resid.=  1.34495880733290E+12
(PID.TID 0003.0001)  cg2d: iter=   903 ; resid.=  2.02411635236494E+12
(PID.TID 0003.0001)  cg2d: iter=   904 ; resid.=  1.62444849225511E+12
(PID.TID 0003.0001)  cg2d: iter=   905 ; resid.=  1.79475387854109E+12
(PID.TID 0003.0001)  cg2d: iter=   906 ; resid.=  2.82254286722706E+13
(PID.TID 0003.0001)  cg2d: iter=   907 ; resid.=  1.14644357296448E+12
(PID.TID 0003.0001)  cg2d: iter=   908 ; resid.=  4.96894298859844E+13
(PID.TID 0003.0001)  cg2d: iter=   909 ; resid.=  1.33307285480832E+12
(PID.TID 0003.0001)  cg2d: iter=   910 ; resid.=  2.02894882279424E+13
(PID.TID 0003.0001)  cg2d: iter=   911 ; resid.=  1.30824723181830E+12
(PID.TID 0003.0001)  cg2d: iter=   912 ; resid.=  8.57886107574079E+13
(PID.TID 0003.0001)  cg2d: iter=   913 ; resid.=  1.20972316671957E+12
(PID.TID 0003.0001)  cg2d: iter=   914 ; resid.=  1.32742693874765E+13
(PID.TID 0003.0001)  cg2d: iter=   915 ; resid.=  1.36719159131972E+12
(PID.TID 0003.0001)  cg2d: iter=   916 ; resid.=  1.98564033991594E+12
(PID.TID 0003.0001)  cg2d: iter=   917 ; resid.=  2.24967962480465E+12
(PID.TID 0003.0001)  cg2d: iter=   918 ; resid.=  1.26544825596885E+12
(PID.TID 0003.0001)  cg2d: iter=   919 ; resid.=  8.03515053991986E+13
(PID.TID 0003.0001)  cg2d: iter=   920 ; resid.=  1.23038648252751E+12
(PID.TID 0003.0001)  cg2d: iter=   921 ; resid.=  3.00523561361808E+12
(PID.TID 0003.0001)  cg2d: iter=   922 ; resid.=  1.37428517337323E+12
(PID.TID 0003.0001)  cg2d: iter=   923 ; resid.=  2.24098852520204E+12
(PID.TID 0003.0001)  cg2d: iter=   924 ; resid.=  1.47065415461754E+12
(PID.TID 0003.0001)  cg2d: iter=   925 ; resid.=  2.29098154733021E+12
(PID.TID 0003.0001)  cg2d: iter=   926 ; resid.=  1.69841960971951E+12
(PID.TID 0003.0001)  cg2d: iter=   927 ; resid.=  2.60638904486485E+12
(PID.TID 0003.0001)  cg2d: iter=   928 ; resid.=  1.36036287985568E+12
(PID.TID 0003.0001)  cg2d: iter=   929 ; resid.=  6.96991742108129E+12
(PID.TID 0003.0001)  cg2d: iter=   930 ; resid.=  1.21950678396091E+12
(PID.TID 0003.0001)  cg2d: iter=   931 ; resid.=  8.89050803606914E+12
(PID.TID 0003.0001)  cg2d: iter=   932 ; resid.=  1.48352390597468E+12
(PID.TID 0003.0001)  cg2d: iter=   933 ; resid.=  2.02185543139606E+12
(PID.TID 0003.0001)  cg2d: iter=   934 ; resid.=  1.56487718934318E+12
(PID.TID 0003.0001)  cg2d: iter=   935 ; resid.=  1.58580656523825E+12
(PID.TID 0003.0001)  cg2d: iter=   936 ; resid.=  2.95832468437484E+12
(PID.TID 0003.0001)  cg2d: iter=   937 ; resid.=  1.20031714129152E+12
(PID.TID 0003.0001)  cg2d: iter=   938 ; resid.=  5.17132223090386E+12
(PID.TID 0003.0001)  cg2d: iter=   939 ; resid.=  1.47798479151435E+12
(PID.TID 0003.0001)  cg2d: iter=   940 ; resid.=  1.80244996355691E+12
(PID.TID 0003.0001)  cg2d: iter=   941 ; resid.=  1.54425664905052E+12
(PID.TID 0003.0001)  cg2d: iter=   942 ; resid.=  1.60925761452582E+12
(PID.TID 0003.0001)  cg2d: iter=   943 ; resid.=  1.37295198259140E+12
(PID.TID 0003.0001)  cg2d: iter=   944 ; resid.=  1.68012189317402E+12
(PID.TID 0003.0001)  cg2d: iter=   945 ; resid.=  2.15473579861540E+12
(PID.TID 0003.0001)  cg2d: iter=   946 ; resid.=  1.24005318304612E+12
(PID.TID 0003.0001)  cg2d: iter=   947 ; resid.=  2.40108762750788E+12
(PID.TID 0003.0001)  cg2d: iter=   948 ; resid.=  1.86142850801198E+12
(PID.TID 0003.0001)  cg2d: iter=   949 ; resid.=  1.59495348468502E+12
(PID.TID 0003.0001)  cg2d: iter=   950 ; resid.=  2.34405003789535E+12
(PID.TID 0003.0001)  cg2d: iter=   951 ; resid.=  1.42966791381404E+12
(PID.TID 0003.0001)  cg2d: iter=   952 ; resid.=  6.35774455680467E+12
(PID.TID 0003.0001)  cg2d: iter=   953 ; resid.=  1.51433203388014E+12
(PID.TID 0003.0001)  cg2d: iter=   954 ; resid.=  2.63557749695981E+12
(PID.TID 0003.0001)  cg2d: iter=   955 ; resid.=  1.40223159702813E+12
(PID.TID 0003.0001)  cg2d: iter=   956 ; resid.=  1.94196728077834E+12
(PID.TID 0003.0001)  cg2d: iter=   957 ; resid.=  1.53227014442914E+12
(PID.TID 0003.0001)  cg2d: iter=   958 ; resid.=  1.29337681260691E+13
(PID.TID 0003.0001)  cg2d: iter=   959 ; resid.=  1.12789320388141E+12
(PID.TID 0003.0001)  cg2d: iter=   960 ; resid.=  3.06490230734356E+12
(PID.TID 0003.0001)  cg2d: iter=   961 ; resid.=  1.58914061220785E+12
(PID.TID 0003.0001)  cg2d: iter=   962 ; resid.=  1.30460429360045E+12
(PID.TID 0003.0001)  cg2d: iter=   963 ; resid.=  1.03576562971439E+13
(PID.TID 0003.0001)  cg2d: iter=   964 ; resid.=  1.14952348197269E+12
(PID.TID 0003.0001)  cg2d: iter=   965 ; resid.=  1.81978849884269E+13
(PID.TID 0003.0001)  cg2d: iter=   966 ; resid.=  1.43595968605726E+12
(PID.TID 0003.0001)  cg2d: iter=   967 ; resid.=  3.07119033438451E+12
(PID.TID 0003.0001)  cg2d: iter=   968 ; resid.=  1.32715919861129E+12
(PID.TID 0003.0001)  cg2d: iter=   969 ; resid.=  2.01242693084721E+12
(PID.TID 0003.0001)  cg2d: iter=   970 ; resid.=  1.75607903315015E+12
(PID.TID 0003.0001)  cg2d: iter=   971 ; resid.=  1.28486995170750E+12
(PID.TID 0003.0001)  cg2d: iter=   972 ; resid.=  3.33030476693401E+13
(PID.TID 0003.0001)  cg2d: iter=   973 ; resid.=  1.19462934378651E+12
(PID.TID 0003.0001)  cg2d: iter=   974 ; resid.=  1.50233084574892E+12
(PID.TID 0003.0001)  cg2d: iter=   975 ; resid.=  2.76157704094088E+12
(PID.TID 0003.0001)  cg2d: iter=   976 ; resid.=  1.60187252279397E+12
(PID.TID 0003.0001)  cg2d: iter=   977 ; resid.=  1.41788393873307E+12
(PID.TID 0003.0001)  cg2d: iter=   978 ; resid.=  1.56090496269431E+12
(PID.TID 0003.0001)  cg2d: iter=   979 ; resid.=  4.18754031203847E+12
(PID.TID 0003.0001)  cg2d: iter=   980 ; resid.=  1.17285263314110E+12
(PID.TID 0003.0001)  cg2d: iter=   981 ; resid.=  2.06983405777062E+12
(PID.TID 0003.0001)  cg2d: iter=   982 ; resid.=  1.47678283152887E+12
(PID.TID 0003.0001)  cg2d: iter=   983 ; resid.=  2.73664129520604E+12
(PID.TID 0003.0001)  cg2d: iter=   984 ; resid.=  1.05305552792078E+12
(PID.TID 0003.0001)  cg2d: iter=   985 ; resid.=  2.99756290180507E+12
(PID.TID 0003.0001)  cg2d: iter=   986 ; resid.=  1.48284974409998E+12
(PID.TID 0003.0001)  cg2d: iter=   987 ; resid.=  1.89278894397740E+12
(PID.TID 0003.0001)  cg2d: iter=   988 ; resid.=  1.14097952816491E+12
(PID.TID 0003.0001)  cg2d: iter=   989 ; resid.=  4.07615352736606E+12
(PID.TID 0003.0001)  cg2d: iter=   990 ; resid.=  1.24807143747220E+12
(PID.TID 0003.0001)  cg2d: iter=   991 ; resid.=  2.31158195175425E+12
(PID.TID 0003.0001)  cg2d: iter=   992 ; resid.=  2.05198365334598E+12
(PID.TID 0003.0001)  cg2d: iter=   993 ; resid.=  1.25111573025973E+12
(PID.TID 0003.0001)  cg2d: iter=   994 ; resid.=  2.19926531595693E+12
(PID.TID 0003.0001)  cg2d: iter=   995 ; resid.=  1.20058234316315E+12
(PID.TID 0003.0001)  cg2d: iter=   996 ; resid.=  3.80219400356454E+12
(PID.TID 0003.0001)  cg2d: iter=   997 ; resid.=  1.10111294583488E+12
(PID.TID 0003.0001)  cg2d: iter=   998 ; resid.=  3.61637306268525E+12
(PID.TID 0003.0001)  cg2d: iter=   999 ; resid.=  1.38174936900189E+12
(PID.TID 0003.0001)  cg2d: iter=  1000 ; resid.=  3.68749760861836E+12
(PID.TID 0003.0001) // =======================================================
(PID.TID 0003.0001) // Model current state
(PID.TID 0003.0001) // =======================================================
(PID.TID 0003.0001) 
(PID.TID 0003.0001) // =======================================================
(PID.TID 0003.0001) // Begin MONITOR dynamic field statistics
(PID.TID 0003.0001) // =======================================================
(PID.TID 0003.0001) %MON time_tsnumber                =                     0
(PID.TID 0003.0001) %MON time_secondsf                =   0.0000000000000E+00
(PID.TID 0003.0001) %MON dynstat_eta_max              =   0.0000000000000E+00
(PID.TID 0003.0001) %MON dynstat_eta_min              =   0.0000000000000E+00
(PID.TID 0003.0001) %MON dynstat_eta_mean             =   0.0000000000000E+00
(PID.TID 0003.0001) %MON dynstat_eta_sd               =   0.0000000000000E+00
(PID.TID 0003.0001) %MON dynstat_eta_del2             =   0.0000000000000E+00
(PID.TID 0003.0001) %MON dynstat_uvel_max             =   0.0000000000000E+00
(PID.TID 0003.0001) %MON dynstat_uvel_min             =   0.0000000000000E+00
(PID.TID 0003.0001) %MON dynstat_uvel_mean            =   0.0000000000000E+00
(PID.TID 0003.0001) %MON dynstat_uvel_sd              =   0.0000000000000E+00
(PID.TID 0003.0001) %MON dynstat_uvel_del2            =   0.0000000000000E+00
(PID.TID 0003.0001) %MON dynstat_vvel_max             =   0.0000000000000E+00
(PID.TID 0003.0001) %MON dynstat_vvel_min             =   0.0000000000000E+00
(PID.TID 0003.0001) %MON dynstat_vvel_mean            =   0.0000000000000E+00
(PID.TID 0003.0001) %MON dynstat_vvel_sd              =   0.0000000000000E+00
(PID.TID 0003.0001) %MON dynstat_vvel_del2            =   0.0000000000000E+00
(PID.TID 0003.0001) %MON dynstat_wvel_max             =  -0.0000000000000E+00
(PID.TID 0003.0001) %MON dynstat_wvel_min             =  -0.0000000000000E+00
(PID.TID 0003.0001) %MON dynstat_wvel_mean            =   0.0000000000000E+00
(PID.TID 0003.0001) %MON dynstat_wvel_sd              =   0.0000000000000E+00
(PID.TID 0003.0001) %MON dynstat_wvel_del2            =   0.0000000000000E+00
(PID.TID 0003.0001) %MON dynstat_theta_max            =   2.0000000000000E+01
(PID.TID 0003.0001) %MON dynstat_theta_min            =   2.0000000000000E+01
(PID.TID 0003.0001) %MON dynstat_theta_mean           =   2.0000000000000E+01
(PID.TID 0003.0001) %MON dynstat_theta_sd             =   8.1712414612411E-14
(PID.TID 0003.0001) %MON dynstat_theta_del2           =   0.0000000000000E+00
(PID.TID 0003.0001) %MON dynstat_salt_max             =   3.0000000000000E+01
(PID.TID 0003.0001) %MON dynstat_salt_min             =   3.0000000000000E+01
(PID.TID 0003.0001) %MON dynstat_salt_mean            =   3.0000000000000E+01
(PID.TID 0003.0001) %MON dynstat_salt_sd              =   2.0605739337043E-13
(PID.TID 0003.0001) %MON dynstat_salt_del2            =   0.0000000000000E+00
(PID.TID 0003.0001) %MON dynstat_sst_max              =   2.0000000000000E+01
(PID.TID 0003.0001) %MON dynstat_sst_min              =   2.0000000000000E+01
(PID.TID 0003.0001) %MON dynstat_sst_mean             =   1.9999999999998E+01
(PID.TID 0003.0001) %MON dynstat_sst_sd               =   2.4584778657296E-12
(PID.TID 0003.0001) %MON dynstat_sst_del2             =   0.0000000000000E+00
(PID.TID 0003.0001) %MON dynstat_sss_max              =   3.0000000000000E+01
(PID.TID 0003.0001) %MON dynstat_sss_min              =   3.0000000000000E+01
(PID.TID 0003.0001) %MON dynstat_sss_mean             =   2.9999999999996E+01
(PID.TID 0003.0001) %MON dynstat_sss_sd               =   4.4231285301062E-12
(PID.TID 0003.0001) %MON dynstat_sss_del2             =   0.0000000000000E+00
(PID.TID 0003.0001) %MON forcing_qnet_max             =   0.0000000000000E+00
(PID.TID 0003.0001) %MON forcing_qnet_min             =   0.0000000000000E+00
(PID.TID 0003.0001) %MON forcing_qnet_mean            =   0.0000000000000E+00
(PID.TID 0003.0001) %MON forcing_qnet_sd              =   0.0000000000000E+00
(PID.TID 0003.0001) %MON forcing_qnet_del2            =   0.0000000000000E+00
(PID.TID 0003.0001) %MON forcing_qsw_max              =   0.0000000000000E+00
(PID.TID 0003.0001) %MON forcing_qsw_min              =   0.0000000000000E+00
(PID.TID 0003.0001) %MON forcing_qsw_mean             =   0.0000000000000E+00
(PID.TID 0003.0001) %MON forcing_qsw_sd               =   0.0000000000000E+00
(PID.TID 0003.0001) %MON forcing_qsw_del2             =   0.0000000000000E+00
(PID.TID 0003.0001) %MON forcing_empmr_max            =   0.0000000000000E+00
(PID.TID 0003.0001) %MON forcing_empmr_min            =   0.0000000000000E+00
(PID.TID 0003.0001) %MON forcing_empmr_mean           =   0.0000000000000E+00
(PID.TID 0003.0001) %MON forcing_empmr_sd             =   0.0000000000000E+00
(PID.TID 0003.0001) %MON forcing_empmr_del2           =   0.0000000000000E+00
(PID.TID 0003.0001) %MON forcing_fu_max               =   0.0000000000000E+00
(PID.TID 0003.0001) %MON forcing_fu_min               =   0.0000000000000E+00
(PID.TID 0003.0001) %MON forcing_fu_mean              =   0.0000000000000E+00
(PID.TID 0003.0001) %MON forcing_fu_sd                =   0.0000000000000E+00
(PID.TID 0003.0001) %MON forcing_fu_del2              =   0.0000000000000E+00
(PID.TID 0003.0001) %MON forcing_fv_max               =   0.0000000000000E+00
(PID.TID 0003.0001) %MON forcing_fv_min               =   0.0000000000000E+00
(PID.TID 0003.0001) %MON forcing_fv_mean              =   0.0000000000000E+00
(PID.TID 0003.0001) %MON forcing_fv_sd                =   0.0000000000000E+00
(PID.TID 0003.0001) %MON forcing_fv_del2              =   0.0000000000000E+00
(PID.TID 0003.0001) %MON trAdv_CFL_u_max              =   0.0000000000000E+00
(PID.TID 0003.0001) %MON trAdv_CFL_v_max              =   0.0000000000000E+00
(PID.TID 0003.0001) %MON trAdv_CFL_w_max              =   0.0000000000000E+00
(PID.TID 0003.0001) %MON advcfl_uvel_max              =   0.0000000000000E+00
(PID.TID 0003.0001) %MON advcfl_vvel_max              =   0.0000000000000E+00
(PID.TID 0003.0001) %MON advcfl_wvel_max              =   0.0000000000000E+00
(PID.TID 0003.0001) %MON advcfl_W_hf_max              =   0.0000000000000E+00
(PID.TID 0003.0001) %MON pe_b_mean                    =   0.0000000000000E+00
(PID.TID 0003.0001) %MON ke_max                       =   0.0000000000000E+00
(PID.TID 0003.0001) %MON ke_mean                      =   0.0000000000000E+00
(PID.TID 0003.0001) %MON ke_vol                       =   1.3390214028633E+18
(PID.TID 0003.0001) %MON vort_r_min                   =   0.0000000000000E+00
(PID.TID 0003.0001) %MON vort_r_max                   =   0.0000000000000E+00
(PID.TID 0003.0001) %MON vort_a_mean                  =  -1.3013328496589E-05
(PID.TID 0003.0001) %MON vort_a_sd                    =   8.0374144259079E-05
(PID.TID 0003.0001) %MON vort_p_mean                  =  -4.0285224932342E-05
(PID.TID 0003.0001) %MON vort_p_sd                    =   2.8329417776011E-03
(PID.TID 0003.0001) %MON surfExpan_theta_mean         =   0.0000000000000E+00
(PID.TID 0003.0001) %MON surfExpan_salt_mean          =   0.0000000000000E+00
(PID.TID 0003.0001) // =======================================================
(PID.TID 0003.0001) // End MONITOR dynamic field statistics
(PID.TID 0003.0001) // =======================================================
(PID.TID 0003.0001)   Seconds in section "ALL                    [THE_MODEL_MAIN]":
(PID.TID 0003.0001)           User time:   3.0244439654052258
(PID.TID 0003.0001)         System time:   9.1128006577491760E-002
(PID.TID 0003.0001)     Wall clock time:   4.1612350940704346
(PID.TID 0003.0001)          No. starts:           1
(PID.TID 0003.0001)           No. stops:           1
(PID.TID 0003.0001)   Seconds in section "INITIALISE_FIXED       [THE_MODEL_MAIN]":
(PID.TID 0003.0001)           User time:   9.1740999370813370E-002
(PID.TID 0003.0001)         System time:   2.2654000669717789E-002
(PID.TID 0003.0001)     Wall clock time:  0.25201606750488281
(PID.TID 0003.0001)          No. starts:           1
(PID.TID 0003.0001)           No. stops:           1
(PID.TID 0003.0001)   Seconds in section "THE_MAIN_LOOP          [THE_MODEL_MAIN]":
(PID.TID 0003.0001)           User time:   2.9326921030879021
(PID.TID 0003.0001)         System time:   6.8456009030342102E-002
(PID.TID 0003.0001)     Wall clock time:   3.9091918468475342
(PID.TID 0003.0001)          No. starts:           1
(PID.TID 0003.0001)           No. stops:           1
(PID.TID 0003.0001)   Seconds in section "INITIALISE_VARIA    [THE_MAIN_LOOP]":
(PID.TID 0003.0001)           User time:   2.9326749891042709
(PID.TID 0003.0001)         System time:   6.8424992263317108E-002
(PID.TID 0003.0001)     Wall clock time:   3.9074940681457520
(PID.TID 0003.0001)          No. starts:           1
(PID.TID 0003.0001)           No. stops:           1
(PID.TID 0003.0001)   Seconds in section "MAIN LOOP           [THE_MAIN_LOOP]":
(PID.TID 0003.0001)           User time:   4.0531158447265625E-006
(PID.TID 0003.0001)         System time:   5.0067901611328125E-006
(PID.TID 0003.0001)     Wall clock time:   1.6610622406005859E-003
(PID.TID 0003.0001)          No. starts:           1
(PID.TID 0003.0001)           No. stops:           1
(PID.TID 0003.0001) // ======================================================
(PID.TID 0003.0001) // Tile <-> Tile communication statistics
(PID.TID 0003.0001) // ======================================================
(PID.TID 0003.0001) // o Tile number: 000006
(PID.TID 0003.0001) //         No. X exchanges =              0
(PID.TID 0003.0001) //            Max. X spins =              0
(PID.TID 0003.0001) //            Min. X spins =     1000000000
(PID.TID 0003.0001) //          Total. X spins =              0
(PID.TID 0003.0001) //            Avg. X spins =       0.00E+00
(PID.TID 0003.0001) //         No. Y exchanges =              0
(PID.TID 0003.0001) //            Max. Y spins =              0
(PID.TID 0003.0001) //            Min. Y spins =     1000000000
(PID.TID 0003.0001) //          Total. Y spins =              0
(PID.TID 0003.0001) //            Avg. Y spins =       0.00E+00
(PID.TID 0003.0001) // o Thread number: 000001
(PID.TID 0003.0001) //            No. barriers =           6562
(PID.TID 0003.0001) //      Max. barrier spins =              1
(PID.TID 0003.0001) //      Min. barrier spins =              1
(PID.TID 0003.0001) //     Total barrier spins =           6562
(PID.TID 0003.0001) //      Avg. barrier spins =       1.00E+00
PROGRAM MAIN: Execution ended Normally
