(PID.TID 0001.0001) 
(PID.TID 0001.0001) // ======================================================
(PID.TID 0001.0001) //                      MITgcm UV
(PID.TID 0001.0001) //                      =========
(PID.TID 0001.0001) // ======================================================
(PID.TID 0001.0001) // execution environment starting up...
(PID.TID 0001.0001) 
(PID.TID 0001.0001) // MITgcmUV version:  checkpoint69i
(PID.TID 0001.0001) // Build user:        hodahashemi
(PID.TID 0001.0001) // Build host:        Hodas-MacBook-Pro.local
(PID.TID 0001.0001) // Build date:        Sat Feb 21 03:49:53 EET 2026
(PID.TID 0001.0001) 
(PID.TID 0001.0001) // =======================================================
(PID.TID 0001.0001) // Execution Environment parameter file "eedata"
(PID.TID 0001.0001) // =======================================================
(PID.TID 0001.0001) > &EEPARMS
(PID.TID 0001.0001) >  nTx=1,
(PID.TID 0001.0001) >  nTy=1,
(PID.TID 0001.0001) > /
(PID.TID 0001.0001) >
(PID.TID 0001.0001) 
(PID.TID 0001.0001) // =======================================================
(PID.TID 0001.0001) // Computational Grid Specification ( see files "SIZE.h" )
(PID.TID 0001.0001) //                                  ( and "eedata"       )
(PID.TID 0001.0001) // =======================================================
(PID.TID 0001.0001)      nPx =    4 ; /* No. processes in X */
(PID.TID 0001.0001)      nPy =    2 ; /* No. processes in Y */
(PID.TID 0001.0001)      nSx =    1 ; /* No. tiles in X per process */
(PID.TID 0001.0001)      nSy =    1 ; /* No. tiles in Y per process */
(PID.TID 0001.0001)      sNx =  360 ; /* Tile size in X */
(PID.TID 0001.0001)      sNy =  360 ; /* Tile size in Y */
(PID.TID 0001.0001)      OLx =    2 ; /* Tile overlap distance in X */
(PID.TID 0001.0001)      OLy =    2 ; /* Tile overlap distance in Y */
(PID.TID 0001.0001)      nTx =    1 ; /* No. threads in X per process */
(PID.TID 0001.0001)      nTy =    1 ; /* No. threads in Y per process */
(PID.TID 0001.0001)       Nr =    1 ; /* No. levels in the vertical   */
(PID.TID 0001.0001)       Nx = 1440 ; /* Total domain size in X ( = nPx*nSx*sNx ) */
(PID.TID 0001.0001)       Ny =  720 ; /* Total domain size in Y ( = nPy*nSy*sNy ) */
(PID.TID 0001.0001)   nTiles =    1 ; /* Total no. tiles per process ( = nSx*nSy ) */
(PID.TID 0001.0001)   nProcs =    8 ; /* Total no. processes ( = nPx*nPy ) */
(PID.TID 0001.0001) nThreads =    1 ; /* Total no. threads per process ( = nTx*nTy ) */
(PID.TID 0001.0001) usingMPI =    T ; /* Flag used to control whether MPI is in use */
(PID.TID 0001.0001)                   /*  note: To execute a program with MPI calls */
(PID.TID 0001.0001)                   /*  it must be launched appropriately e.g     */
(PID.TID 0001.0001)                   /*  "mpirun -np 64 ......"                    */
(PID.TID 0001.0001) useCoupler=   F ; /* Flag used to control communications with   */
(PID.TID 0001.0001)                   /*  other model components, through a coupler */
(PID.TID 0001.0001) useNest2W_parent =    F ;/* Control 2-W Nesting comm */
(PID.TID 0001.0001) useNest2W_child  =    F ;/* Control 2-W Nesting comm */
(PID.TID 0001.0001) debugMode =    F ; /* print debug msg. (sequence of S/R calls)  */
(PID.TID 0001.0001) printMapIncludesZeros=    F ; /* print zeros in Std.Output maps */
(PID.TID 0001.0001) maxLengthPrt1D=   65 /* maxLength of 1D array printed to StdOut */
(PID.TID 0001.0001) 
(PID.TID 0001.0001) ======= Starting MPI parallel Run =========
(PID.TID 0001.0001)  My Processor Name (len: 23 ) = Hodas-MacBook-Pro.local
(PID.TID 0001.0001)  Located at (  0,  1) on processor grid (0:  3,0:  1)
(PID.TID 0001.0001)  Origin at  (     1,   361) on global grid (1:  1440,1:   720)
(PID.TID 0001.0001)  North neighbor = processor 0000
(PID.TID 0001.0001)  South neighbor = processor 0000
(PID.TID 0001.0001)   East neighbor = processor 0003
(PID.TID 0001.0001)   West neighbor = processor 0007
(PID.TID 0001.0001) // ======================================================
(PID.TID 0001.0001) // Mapping of tiles to threads
(PID.TID 0001.0001) // ======================================================
(PID.TID 0001.0001) // -o- Thread   1, tiles (   1:   1,   1:   1)
(PID.TID 0001.0001) 
(PID.TID 0001.0001) // ======================================================
(PID.TID 0001.0001) // Tile <-> Tile connectvity table
(PID.TID 0001.0001) // ======================================================
(PID.TID 0001.0001) // Tile number: 000005 (process no. = 000001)
(PID.TID 0001.0001) //        WEST: Tile = 000008, Process = 000007, Comm = messages
(PID.TID 0001.0001) //                bi = 000001, bj = 000001
(PID.TID 0001.0001) //        EAST: Tile = 000006, Process = 000003, Comm = messages
(PID.TID 0001.0001) //                bi = 000001, bj = 000001
(PID.TID 0001.0001) //       SOUTH: Tile = 000001, Process = 000000, Comm = messages
(PID.TID 0001.0001) //                bi = 000001, bj = 000001
(PID.TID 0001.0001) //       NORTH: Tile = 000001, Process = 000000, Comm = messages
(PID.TID 0001.0001) //                bi = 000001, bj = 000001
(PID.TID 0001.0001) 
(PID.TID 0001.0001)  INI_PARMS: opening model parameter file "data"
(PID.TID 0001.0001)  OPEN_COPY_DATA_FILE: opening file data
(PID.TID 0001.0001) // =======================================================
(PID.TID 0001.0001) // Parameter file "data"
(PID.TID 0001.0001) // =======================================================
(PID.TID 0001.0001) >&PARM01
(PID.TID 0001.0001) >#rotationPeriod is set ini_parms: 86164 \approx 7.292123516990375e-5 ; our fortan is c/86400
(PID.TID 0001.0001) ># 7.27220521664304e-5 , 6.283185307179586
(PID.TID 0001.0001) >omega = 7.292E-5,
(PID.TID 0001.0001) ># MAYBE WE NEED TO ADD 1E2 FOR STABILITY IDK
(PID.TID 0001.0001) >viscAh  = 0.,
(PID.TID 0001.0001) >viscA4  = 0.,
(PID.TID 0001.0001) >diffKhT = 0.,
(PID.TID 0001.0001) >no_slip_sides = .FALSE.,
(PID.TID 0001.0001) >no_slip_bottom = .FALSE.,
(PID.TID 0001.0001) >exactConserv=.TRUE.,
(PID.TID 0001.0001) >momStepping=.FALSE.,
(PID.TID 0001.0001) >tempStepping=.FALSE.,
(PID.TID 0001.0001) >saltStepping=.FALSE.,
(PID.TID 0001.0001) >hFacMin=0.00001,
(PID.TID 0001.0001) >hFacMinDr=0.5,
(PID.TID 0001.0001) >/
(PID.TID 0001.0001) >
(PID.TID 0001.0001) >&PARM02
(PID.TID 0001.0001) >cg2dMaxIters = 1000,
(PID.TID 0001.0001) >cg2dTargetResidual = 1.E-8,
(PID.TID 0001.0001) >cg2dPreCondFreq = 1,
(PID.TID 0001.0001) >printResidualFreq= 1 ,
(PID.TID 0001.0001) >/
(PID.TID 0001.0001) >
(PID.TID 0001.0001) >&PARM03
(PID.TID 0001.0001) >nIter0   = 0,
(PID.TID 0001.0001) >nTimeSteps = 0,
(PID.TID 0001.0001) >deltaT   = 3600.,
(PID.TID 0001.0001) >monitorFreq=10,
(PID.TID 0001.0001) >/
(PID.TID 0001.0001) >
(PID.TID 0001.0001) >&PARM04
(PID.TID 0001.0001) >usingSphericalPolarGrid = .TRUE.,
(PID.TID 0001.0001) >delX = 1440*0.25,
(PID.TID 0001.0001) >delY = 720*0.25,
(PID.TID 0001.0001) >xgOrigin = 0.,
(PID.TID 0001.0001) >ygOrigin = -90.,
(PID.TID 0001.0001) >rSphere = 6371000.,
(PID.TID 0001.0001) >#clipping elevation of water
(PID.TID 0001.0001) >delR =  11000.0,
(PID.TID 0001.0001) ># 11000.0 ,
(PID.TID 0001.0001) >
(PID.TID 0001.0001) >/
(PID.TID 0001.0001) >
(PID.TID 0001.0001) ># Input datasets
(PID.TID 0001.0001) >&PARM05
(PID.TID 0001.0001) >bathyFile='bathymetry.bin',
(PID.TID 0001.0001) ># bathyFile='',
(PID.TID 0001.0001) >#  zonalWindFile='wind.bin',# Forcing to drive the "steady" circulation
(PID.TID 0001.0001) >
(PID.TID 0001.0001) >/
(PID.TID 0001.0001) >
(PID.TID 0001.0001) 
(PID.TID 0001.0001)  INI_PARMS ; starts to read PARM01
(PID.TID 0001.0001)  INI_PARMS ; read PARM01 : OK
(PID.TID 0001.0001) S/R INI_PARMS: No request for barotropic solver
(PID.TID 0001.0001) S/R INI_PARMS: => Use implicitFreeSurface as default
(PID.TID 0001.0001)  INI_PARMS ; starts to read PARM02
(PID.TID 0001.0001)  INI_PARMS ; read PARM02 : OK
(PID.TID 0001.0001)  INI_PARMS ; starts to read PARM03
(PID.TID 0001.0001)  INI_PARMS ; read PARM03 : OK
(PID.TID 0001.0001)  INI_PARMS ; starts to read PARM04
(PID.TID 0001.0001)  INI_PARMS ; read PARM04 : OK
(PID.TID 0001.0001)  INI_PARMS ; starts to read PARM05
(PID.TID 0001.0001)  INI_PARMS ; read PARM05 : OK
(PID.TID 0001.0001)  INI_PARMS: finished reading file "data"
(PID.TID 0001.0001)  PACKAGES_BOOT: opening data.pkg
(PID.TID 0001.0001)  OPEN_COPY_DATA_FILE: opening file data.pkg
(PID.TID 0001.0001) // =======================================================
(PID.TID 0001.0001) // Parameter file "data.pkg"
(PID.TID 0001.0001) // =======================================================
(PID.TID 0001.0001) > &PACKAGES
(PID.TID 0001.0001) >  useMyPackage = .TRUE.,
(PID.TID 0001.0001) > /
(PID.TID 0001.0001) 
(PID.TID 0001.0001)  PACKAGES_BOOT: finished reading data.pkg
(PID.TID 0001.0001)  PACKAGES_BOOT: On/Off package Summary
 --------  pkgs with a standard "usePKG" On/Off switch in "data.pkg":  --------
 pkg/mypackage            compiled   and   used ( useMYPACKAGE             = T )
 -------- pkgs without standard "usePKG" On/Off switch in "data.pkg":  --------
 pkg/generic_advdiff      compiled but not used ( useGAD                   = F )
 pkg/mom_common           compiled but not used ( momStepping              = F )
 pkg/mom_vecinv           compiled but not used ( +vectorInvariantMomentum = F )
 pkg/mom_fluxform         compiled but not used ( & not vectorInvariantMom = F )
 pkg/monitor              compiled   and   used ( monitorFreq > 0.         = T )
 pkg/debug                compiled but not used ( debugMode                = F )
 pkg/rw                   compiled   and   used
 pkg/mdsio                compiled   and   used
(PID.TID 0001.0001)  PACKAGES_BOOT: End of package Summary
(PID.TID 0001.0001) 
(PID.TID 0001.0001) MYPACKAGE_READPARMS: opening data.mypackage
(PID.TID 0001.0001)  OPEN_COPY_DATA_FILE: opening file data.mypackage
(PID.TID 0001.0001) // =======================================================
(PID.TID 0001.0001) // Parameter file "data.mypackage"
(PID.TID 0001.0001) // =======================================================
(PID.TID 0001.0001) >&MYPACKAGE_PARM01
(PID.TID 0001.0001) >/
(PID.TID 0001.0001) 
(PID.TID 0001.0001) MYPACKAGE_READPARMS: finished reading data.mypackage
(PID.TID 0001.0001) SET_PARMS: done
(PID.TID 0001.0001) Enter INI_VERTICAL_GRID: setInterFDr=    T ; setCenterDr=    F
(PID.TID 0001.0001) %MON XC_max                       =   3.5987500000000E+02
(PID.TID 0001.0001) %MON XC_min                       =   1.2500000000000E-01
(PID.TID 0001.0001) %MON XC_mean                      =   1.8000000000000E+02
(PID.TID 0001.0001) %MON XC_sd                        =   1.0392302339552E+02
(PID.TID 0001.0001) %MON XG_max                       =   3.5975000000000E+02
(PID.TID 0001.0001) %MON XG_min                       =   0.0000000000000E+00
(PID.TID 0001.0001) %MON XG_mean                      =   1.7987500000000E+02
(PID.TID 0001.0001) %MON XG_sd                        =   1.0392302339552E+02
(PID.TID 0001.0001) %MON DXC_max                      =   2.7798665505088E+04
(PID.TID 0001.0001) %MON DXC_min                      =   6.0647376310612E+01
(PID.TID 0001.0001) %MON DXC_mean                     =   1.7697236260984E+04
(PID.TID 0001.0001) %MON DXC_sd                       =   8.5552656128781E+03
(PID.TID 0001.0001) %MON DXF_max                      =   2.7798665505088E+04
(PID.TID 0001.0001) %MON DXF_min                      =   6.0647376310612E+01
(PID.TID 0001.0001) %MON DXF_mean                     =   1.7697236260984E+04
(PID.TID 0001.0001) %MON DXF_sd                       =   8.5552656128781E+03
(PID.TID 0001.0001) %MON DXG_max                      =   2.7798731661140E+04
(PID.TID 0001.0001) %MON DXG_min                      =   0.0000000000000E+00
(PID.TID 0001.0001) %MON DXG_mean                     =   1.7697194144702E+04
(PID.TID 0001.0001) %MON DXG_sd                       =   8.5553527331570E+03
(PID.TID 0001.0001) %MON DXV_max                      =   2.7798731661140E+04
(PID.TID 0001.0001) %MON DXV_min                      =   0.0000000000000E+00
(PID.TID 0001.0001) %MON DXV_mean                     =   1.7697194144702E+04
(PID.TID 0001.0001) %MON DXV_sd                       =   8.5553527331570E+03
(PID.TID 0001.0001) %MON YC_max                       =   8.9875000000000E+01
(PID.TID 0001.0001) %MON YC_min                       =  -8.9875000000000E+01
(PID.TID 0001.0001) %MON YC_mean                      =   0.0000000000000E+00
(PID.TID 0001.0001) %MON YC_sd                        =   5.1961474109831E+01
(PID.TID 0001.0001) %MON YG_max                       =   8.9750000000000E+01
(PID.TID 0001.0001) %MON YG_min                       =  -9.0000000000000E+01
(PID.TID 0001.0001) %MON YG_mean                      =  -1.2500000000000E-01
(PID.TID 0001.0001) %MON YG_sd                        =   5.1961474109831E+01
(PID.TID 0001.0001) %MON DYC_max                      =   2.7798731661140E+04
(PID.TID 0001.0001) %MON DYC_min                      =   2.7798731661140E+04
(PID.TID 0001.0001) %MON DYC_mean                     =   2.7798731661186E+04
(PID.TID 0001.0001) %MON DYC_sd                       =   4.6802597353235E-08
(PID.TID 0001.0001) %MON DYF_max                      =   2.7798731661140E+04
(PID.TID 0001.0001) %MON DYF_min                      =   2.7798731661140E+04
(PID.TID 0001.0001) %MON DYF_mean                     =   2.7798731661186E+04
(PID.TID 0001.0001) %MON DYF_sd                       =   4.6802597353235E-08
(PID.TID 0001.0001) %MON DYG_max                      =   2.7798731661140E+04
(PID.TID 0001.0001) %MON DYG_min                      =   2.7798731661140E+04
(PID.TID 0001.0001) %MON DYG_mean                     =   2.7798731661186E+04
(PID.TID 0001.0001) %MON DYG_sd                       =   4.6802597353235E-08
(PID.TID 0001.0001) %MON DYU_max                      =   2.7798731661140E+04
(PID.TID 0001.0001) %MON DYU_min                      =   2.7798731661140E+04
(PID.TID 0001.0001) %MON DYU_mean                     =   2.7798731661186E+04
(PID.TID 0001.0001) %MON DYU_sd                       =   4.6802597353235E-08
(PID.TID 0001.0001) %MON RA_max                       =   7.7276702989699E+08
(PID.TID 0001.0001) %MON RA_min                       =   1.6859188026131E+06
(PID.TID 0001.0001) %MON RA_mean                      =   4.9196033170312E+08
(PID.TID 0001.0001) %MON RA_sd                        =   2.3782534440125E+08
(PID.TID 0001.0001) %MON RAW_max                      =   7.7276702989699E+08
(PID.TID 0001.0001) %MON RAW_min                      =   1.6859188026131E+06
(PID.TID 0001.0001) %MON RAW_mean                     =   4.9196033170312E+08
(PID.TID 0001.0001) %MON RAW_sd                       =   2.3782534440125E+08
(PID.TID 0001.0001) %MON RAS_max                      =   7.7276886894985E+08
(PID.TID 0001.0001) %MON RAS_min                      =   0.0000000000000E+00
(PID.TID 0001.0001) %MON RAS_mean                     =   4.9195916092479E+08
(PID.TID 0001.0001) %MON RAS_sd                       =   2.3782776623264E+08
(PID.TID 0001.0001) %MON RAZ_max                      =   7.7276886894985E+08
(PID.TID 0001.0001) %MON RAZ_min                      =   0.0000000000000E+00
(PID.TID 0001.0001) %MON RAZ_mean                     =   4.9195916092479E+08
(PID.TID 0001.0001) %MON RAZ_sd                       =   2.3782776623264E+08
(PID.TID 0001.0001) %MON AngleCS_max                  =   1.0000000000000E+00
(PID.TID 0001.0001) %MON AngleCS_min                  =   1.0000000000000E+00
(PID.TID 0001.0001) %MON AngleCS_mean                 =   1.0000000000000E+00
(PID.TID 0001.0001) %MON AngleCS_sd                   =   0.0000000000000E+00
(PID.TID 0001.0001) %MON AngleSN_max                  =   0.0000000000000E+00
(PID.TID 0001.0001) %MON AngleSN_min                  =   0.0000000000000E+00
(PID.TID 0001.0001) %MON AngleSN_mean                 =   0.0000000000000E+00
(PID.TID 0001.0001) %MON AngleSN_sd                   =   0.0000000000000E+00
(PID.TID 0001.0001)  MDS_READ_FIELD: opening global file: bathymetry.bin
(PID.TID 0001.0001) // =======================================================
(PID.TID 0001.0001) // Field Model R_low (ini_masks_etc)
(PID.TID 0001.0001) // CMIN =         -5.278000976562500E+03
(PID.TID 0001.0001) // CMAX =         -4.999999999999999E-01
(PID.TID 0001.0001) // CINT =          1.954629991319445E+02
(PID.TID 0001.0001) // SYMBOLS (CMIN->CMAX): -abcdefghijklmnopqrstuvwxyz+
(PID.TID 0001.0001) //                  0.0: .
(PID.TID 0001.0001) // RANGE I (Lo:Hi:Step):(    -1:   362:     1)
(PID.TID 0001.0001) // RANGE J (Lo:Hi:Step):(   722:   359:    -1)
(PID.TID 0001.0001) // RANGE K (Lo:Hi:Step):(   1:   1:   1)
(PID.TID 0001.0001) // =======================================================
(PID.TID 0001.0001) K =   1
(PID.TID 0001.0001) //                I=8       I=18      I=28      I=38      I=48      I=58      I=68      I=78      I=88      I=98      I=108     I=118     I=128     I=138     I=148     I=158     I=168     I=178     I=188     I=198     I=208     I=218     I=228     I=238     I=248     I=258     I=268     I=278     I=288     I=298     I=308     I=318     I=328     I=338     I=348     I=358
(PID.TID 0001.0001) // |--J--|101234567|901234567|901234567|901234567|901234567|901234567|901234567|901234567|901234567|901234567|901234567|901234567|901234567|901234567|901234567|901234567|901234567|901234567|901234567|901234567|901234567|901234567|901234567|901234567|901234567|901234567|901234567|901234567|901234567|901234567|901234567|901234567|901234567|901234567|901234567|901234567|9012
(PID.TID 0001.0001) //    722 ............................................................................................................................................................................................................................................................................................................................................................................
(PID.TID 0001.0001) //    721 ............................................................................................................................................................................................................................................................................................................................................................................
(PID.TID 0001.0001) //    720 eeeeeeeeeeeeeeeeeeeeeeeeeeeeeeeeeeeeeeeeeeeeeeeeeeeeeeeeeeeeeeeeeeeeeeeeeeeeeeeeeeeeeeeeeeeeeeeeeeeeeeeeeeeeeeeeeeeeeeeeeeeeeeeeeeeeeeeeeeeeeeeeeeeeeeeeeeeeeeeeeeeeeeeeeeeeeeeeeeeeeeeeeeeeeeeeeeeeeeeeeeeeeeeeeeeeeeeeeeeeeeeeeeeeeeeeeeeeeeeeeeeeeeeeeeeeeeeeeeeeeeeeeeeeeeeeeeeeeeeeeeeeeeeeeeeeeeeeeeeeeeeeeeeeeeeeeeeeeeeeeeeeeeeeeeeeeeeeeeeeeeeeeeeeeeeeeeeeeeeeeeee
(PID.TID 0001.0001) //    719 eeeeeeeeeeeeeeeeeeeeeeeeeeeeeeeeeeeeeeeeeeeeeeeeeeeeeeeeeeeeeeeeeeeeeeeeeeeeeeeeeeeeeeeeeeeeeeeeeeeeeeeeeeeeeeeeeeeeeeeeeeeeeeeeeeeeeeeeeeeeeeeeeeeeeeeeeeeeeeeeeeeeeeeeeeeeeeeeeeeeeeeeeeeeeeeeeeeeeeeeeeeeeeeeeeeeeeeeeeeeeeeeeeeeeeeeeeeeeeeeeeeeeeeeeeeeeeeeeeeeeeeeeeeeeeeeeeeeeeeeeeeeeeeeeeeeeeeeeeeeeeeeeeeeeeeeeeeeeeeeeeeeeeeeeeeeeeeeeeeeeeeeeeeeeeeeeeeeeeeeeeee
(PID.TID 0001.0001) //    718 eeeeeeeeeeeeeeeeeeeeeeeeeeeeeeeeeeeeeeeeeeeeeeeeeeeeeeeeeeeeeeeeeeeeeeeeeeeeeeeeeeeeeeeeeeeeeeeeeeeeeeeeeeeeeeeeeeeeeeeeeeeeeeeeeeeeeeeeeeeeeeeeeeeeeeeeeeeeeeeeeeeeeeeeeeeeeeeeeeeeeeeeeeeeeeeeeeeeeeeeeeeeeeeeeeeeeeeeeeeeeeeeeeeeeeeeeeeeeeeeeeeeeeeeeeeeeeeeeeeeeeeeeeeeeeeeeeeeeeeeeeeeeeeeeeeeeeeeeeeeeeeeeeeeeeeeeeeeeeeeeeeeeeeeeeeeeeeeeeeeeeeeeeeeeeeeeeeeeeeeeeee
(PID.TID 0001.0001) //    717 eeeeeeeeeeeeeeeeeeeeeeeeeeeeeeeeeeeeeeeeeeeeeeeeeeeeeeeeeeeeeeeeeeeeeeeeeeeeeeeeeeeeeeeeeeeeeeeeeeeeeeeeeeeeeeeeeeeeeeeeeeeeeeeeeeeeeeeeeeeeeeeeeeeeeeeeeeeeeeeeeeeeeeeeeeeeeeeeeeeeeeeeeeeeeeeeeeeeeeeeeeeeeeeeeeeeeeeeeeeeeeeeeeeeeeeeeeeeeeeeeeeeeeeeeeeeeeeeeeeeeeeeeeeeeeeeeeeeeeeeeeeeeeeeeeeeeeeeeeeeeeeeeeeeeeeeeeeeeeeeeeeeeeeeeeeeeeeeeeeeeeeeeeeeeeeeeeeeeeeeeeee
(PID.TID 0001.0001) //    716 eeeeeeeeeeeeeeeeeeeeeeeeeeeeeeeeeeeeeeeeeeeeeeeeeeeeeeeeeeeeeeeeeeeeeeeeeeeeeeeeeeeeeeeeeeeeeeeeeeeeeeeeeeeeeeeeeeeeeeeeeeeeeeeeeeeeeeeeeeeeeeeeeeeeeeeeeeeeeeeeeeeeeeeeeeeeeeeeeeeeeeeeeeeeeeeeeeeeeeeeeeeeeeeeeeeeeeeeeeeeeeeeeeeeeeeeeeeeeeeeeeeeeeeeeeeeeeeeeeeeeeeeeeeeeeeeeeeeeeeeeeeeeeeeeeeeeeeeeeeeeeeeeeeeeeeeeeeeeeeeeeeeeeeeeeeeeeeeeeeeeeeeeeeeeeeeeeeeeeeeeeee
(PID.TID 0001.0001) //    715 eeeeeeeeeeeeeeeeeeeeeeeeeeeeeeeeeeeeeeeeeeeeeeeeeeeeeeeeeeeeeeeeeeeeeeeeeeeeeeeeeeeeeeeeeeeeeeeeeeeeeeeeeeeeeeeeeeeeeeeeeeeeeeeeeeeeeeeeeeeeeeeeeeeeeddddddddddddddddddddddddddddddddddeeeeeeeeeeeeeeeeeeeeeeeeeeeeeeeeeeeeeeeeeeeeeeeeeeeeeeeeeeeeeeeeeeeeeeeeeeeeeeeeeeeeeeeeeeeeeeeeeeeeeeeeeeeeeeeeeeeeeeeeeeeeeeeeeeeeeeeeeeeeeeeeeeeeeeeeeeeeeeeeeeeeeeeeeeeeeeeeeeeee
(PID.TID 0001.0001) //    714 eeeeeeeeeeeeeeeeeeeeeeeeeeeeeeeeeeeeeeeeeeeeeeeeeeeeeeeeeeeeeeeeeeeeeeeeeeeeeeeeeeeeeeeeeeeeeeeeeeeeeeeeeeeeeeeeeeeeeeeeedddddddddddddddeeeeeeeeeeeeeeeeeeeeeeeeeeeeeeeeeeeeeeeeeeeeeeeeeedddddddddddddddddddddddddddddddddddddeeeeeeeeeeeeeeeeeeeeeeeeeeeeeeeeeeeeeeeeeeeeeeeeeeeeeeeeeeeeeeeeeeeeeeeeeeeeeeeeeeeeeeeeeeeeeeeeeeeeeeeeeeeeeeeeeeeeeeeeeeeeeeeeeeeeeeeeeeeee
(PID.TID 0001.0001) //    713 eeeeeeeeeeeeeeeeeeeeeeeeeeeeeeeeeeeeeeeeeeeeeeeddddddddddddddddddddddddddddddddddddddddeeeeeeeeeeeeeeeeeeeeeeeeeeeeeeeeeeeeeeeeeeeedddddeeeeeeeeeeeeeeeeeeeeeeeeeeffffffffffffffffeeeeeeeeeeeeeeedddddddddddddddddddddddddddddddddddddddddddddddddddddddeeeeeeeeeeeeeeeeeeeeeeeeeeeeeeeeeeeeeeeeeeeeeeeeeeeeeeeeeeeeeeeeeeeeeeeeeeeeeeeeeeeeeeeeeeeeeeeeeeeeeeeeeeeeeeeeeeee
(PID.TID 0001.0001) //    712 eeeeeeeeeeeeeeeeeeeeeeeeeeeeeeeeeeeeeeeeeeeeeeeeeeeeeeeeeeeeeeeeeeeeeeeeeeedddddddddeeeeeeeeeeeeeeeeeeeeeeeeeeeeeeeeeeeeeeeeeeeeeeeeeeeeeeeeeeeeeeeeeeeeefffffffffffggggggggggggggffffffeeeeeeeeeeeeeeeeeeeeeeeeeeeeeeeeeeddddddddddddddddddddddddddeeeeeeeeeeeeeeeeeeeeeeeeeeeeeeeeeeeffffeeeeeeeeeeeeeeeeeeeeeeeeeeeeeeeeeeeeeeeeeeeeeeeeeeeeeeeeeeeeeeeeeeeeeeeeeeeeeeeee
(PID.TID 0001.0001) //    711 eeeeeeeeeeeddeddddddeeeeeeeeeeeeeeeeeeeeeeeeeeeeeefffffffffffeeeeeeeeeeeeeeeddddddeeeeeeeeeeeeeeeeeeeeeeeffffefffffffffeeeeeeeeeeeeeeeeeeeeeeeffffffffffffffffffffffgggghgggggghggggggffffffffeefffffffffffffffffffffffffeeeeeeeeeeeeeeeeeeeeeeeeeeeeeeeeeeeffffffffffffffffffffffffffffffffffffffffffffeeeeeeeeeeeeeeeeeeeeeeeeeeeeeeeeeeeeeeeeeeeeeeeeeeeeeeeeeeeeeeeeeeee
(PID.TID 0001.0001) //    710 eeeeeeeeeeeeeeeeeeeeeeeeeeeeeeeeeeeeeeffffffffffffffffffffffffffffeeeeeeeeeeeeeeeeeeeeeeeeeeeeeeeeeffeefffeeffffeffffffffffffffffffffffggggggggggffffffgfffgggggggggggggghhhhhhhhhhhhhgggggggggggggggggghhhhhhhhhhhhhhhgggggggggggggggggghhhhhhhhhgggggggggggggghhhggggggggggggggggggggggffffffffffffffffffffffffffffffffffeeeeeeeeeeeeeeeeeeeeeeeeeeeeeeeeeeeeeeeeeeeeeeeee
(PID.TID 0001.0001) //    709 eeeeeeeeeeeeeeeeeeeeeeeeeeeeeeeeffffffffffffffffffffffffffffffeeeeeeeeeeeeeeeeeeeeeeeeeeeeeeffffffffffffffffffffffffggggggghhhhhhhhiiiiiiiiiiiiihhhhhhhiiiiiiiiiiiiiiiiiiiiiiiiiiiiiiiiiiiiiiiiiiiiiiiiiiiiiiiiihhhhhiihhhhhhhiiiiiiiiiijjjjjjjjjjjjjjjjjjjjjjjjjjjjjjjjjjjiiiiiiiiihhhhhhhhhggggggggggggggggggggggggffffffffffffffffffffffffffffffeeeeeeeeeeeeeeeeeeeeeeeee
(PID.TID 0001.0001) //    708 eeeefffffffffffffffffffffffffffffffffffffffffffffffffffffffeeeeeeeeeeeeeeeffffffffffffffffffffgggggggggghhhhhhhhhhhhhhiiiijjjjjjjjkkkkkkkkkkkkkkjjjjjjjjjjkkkkkkkkkjjjjiiiiiiiiijjjjjjjjjjiiijjjjjjiiiiiiiihhhhgggggghhgggggggghhhggghhiiiiihhiijjjjjjkkkllllllllllllllllllkkkkkkkkkkkjjjjjjjjiiiiiiiiiiiiiiihhhhhhhhhhgggggggggggggggggggffffffffffffffffffffffffffffffffff
(PID.TID 0001.0001) //    707 fffffgggggggggggggggggggggggggggggggggggggggggggggggggggfffffffeeeeeeffffggggghhhhhhhhhhhhhhhhhhhhhiiiiiiiiiiiiiijjjjjjjjjjjjjjjjjjkkkjkkkkkkkkkkkkkkjjjjjjjjjjjjjiiiiihhhhhhiiiiiijjjjjihhhhhhgghgggghggggggggggffgggggggggghhhhhhhhiiiiiiiiiijjjjkkkklllllllllllllllllllllllllllllllllllkkkkkkkkkkkkkjjjjjjjjiiiiiiiiiiiiiiihhhhhhhhhhhhgggggggggggggggfffffffffffffffffff
(PID.TID 0001.0001) //    706 gggggggggggggggggggggggggggggggggggggggggggggggggggggggggggggggggggggghhhhiiiiiiiiiiiiiiiiiiiiiiijjjjjjjjjjjjjjjjkkkkkjjjjiiiihhiiiiiiiijjjjjjjjjjjjiiiiihhiiiiiiiiihhhhhhhhiijjjjjjjjjjiihhhihhhhhhhhiihhiiijjjjjjjiiiiiijjjjjjkkkkkkkkkkkkkkkkkkklllllllllllllllllllllllllllllllllllllllllllllllllllllllkkkkjjjjjjjjjjjjjjjjjjjjjjjjjiiiiiiiihhhhhhhhhhhhhhhhhhhgghhhgghhg
(PID.TID 0001.0001) //    705 fffggggggggggggggggggggggggggggggggggggggggggggggggggghhhiiiiiiiiiiijjjjjjjjjjjjjjiiiiiiiijjjjjjjjjjjjjjkkkkkkkkklllllkkjjiiiihhhhhhhhhhhhiiiiiiiiiiihhiihiijkjjkkkkjjjjkklkkllllkkkkkkkjjjjjjjiiiiiiiijjjjjjkkjjjjjjjjjjijjjjjjjjjjjjjjjjjjjjjjjjjjjjkkkkkkkkkkkkkkllllllllllllllllllllllllllllllllllllkkkkkjjjjjjjjjjjjkkkkjkkkkkkkkkkjjjjjjjiiiiiijjjjjjjjiiiiiiiiiiiiiii
(PID.TID 0001.0001) //    704 gggggggggggggggggggggggggggggggggggggggggggggghhhhiiiijjjjkkkkkkkkkkllllllllllllkkjjjiiiiijjkkkjjjjjjjjjjkkkkkklllllllllkkjjjiihhhhhhhghhhhiiiiijiiiiiijjjjkkllllkkkkjjjkkkkkkkkjjiiiiiiiiiiiiihhhhhhhhhhhhhhhihhhhhhhhhhhhhhhhhhhhhhhhhhhhhhhhhhhhiiiiiiiiiiiiijjjjjjjjjjjkkkkkkkkkkkkkklllkkllllllllkkkkjjjjiiiijiiiijjjjjjjjkkkkkkkkkjjjjjjjjjjjjjjkkkkkkkkkkkkkkkkkkkjjj
(PID.TID 0001.0001) //    703 ggggggggggggggggggggggggggggggggggggggggghhhhiiijjkkkkkklllllllllllllllllllllmmmmlllkkkjjjjkkkkjjjjjjjjjkkkkkllllllllllllkkkkkkkkkkjjjiiiiiiiijjjjjiiiiiiiiijjjjiiiiiihhhhhhhhhhhhhhhhhhhhhhhhhhggggghhhghhhhhhhhhhhhhhhhhhhhhhhgggggggggggghhhhhhhhhhhhhhhhhhhhhhhhhhiiiiiiiiiiiijjjjjjjjjjjjjkkkkkkkkkkkkkkkjjjjjjiiiiiiiiiiiiiiiiiiiiiiiiiiiiiiijjjjkkkkkllllllllllkkkkjj
(PID.TID 0001.0001) //    702 gghhhhhhhhhhhhhhgggggggggggghhhiiiiijjjjjjjjjjjjjkkkkkkkkkkjjkkkkkkkkkkkllllmnnnnnnnnnmmmmlllllkkkkkkkkklllllllllllllllllllkkkkkkkkkkjjjiiiiiiiiiiiiiihhhhhhhhhhhhhhggggggggggggggggggggggggggggggggggggggggggggggggggggggggggggggggggggggggggggggggggggggggggghhhhhhhhhhhhhhhhhhhhhhhhiiiiiiiiiiiiiijjjjjjjkkkjjjjjjjjjjjjjjjjjjjjjjjjjiiiiiiiiiijjjjjjjjjjjjjiiiiiiiiiiihh
(PID.TID 0001.0001) //    701 iiiiiiiiiiiiiiiiiihhhhhhhhhhiiijjjjjkjjjjjjiiiiijjjjjjjjiiiiiiijjjjjjjjjjjkkkklllllllkkkkkkkkkkkkkkllkkkkkkkklllllllkkkkkjjjjjjjjiiiiiiihhhhhhhhhhhhhhhhgggggggggggggggggggggggggggggggggggggggggggggggggggggggggggggggggggggggggggggggggggggghhhhhhhhhghhhhhhhhhhhhhhhhhhhhhhhhhhhhhhhhhhhhhhhhhhhhhhhhhiiiiiiiiiiiiiiiijjjjjjjjjjjjjjjjjjjjjjjjkkkkkkkkkkkkkkkkkkkkjjjjjjj
(PID.TID 0001.0001) //    700 jjjkkkkkkkkkkkkkjjjkkkjjjjiihhhhhhhhiiiiiiiiiiiijjjjkkkjjiiiiihhiiiiiiijjjjiiiiiiiiiiiiiiiiiijjjjkkkkjjjjjjjjjjjjjjjiiiiiiiihhhhhhhhhhhhhhhhhggggggggggggggggggggggggggggggggggggggggggggggggggggggggggghhhhhhhhhhhhhhhhhhhhhhhhhhhhhhhhhhhhhhhhhhhhhhhhhhhhhhhhhhhhhhhhhhhhhhhhhhhhhhhhhhhhhhhhhhhhhhhhhhhhhhhhhhhhhhhhhhhhhhiiiiiiiiiiiiiiiiiiijjjjjjjjjjkkkkkkkkkkjjjjjjj
(PID.TID 0001.0001) //    699 lllllllllkkkkkkkkkkkllkkkjjiihhhhhhhhhhhhhhiiiijjjjjjjjjjiiihhhhhhhhiiiiiiihhhhhhhhhhhhiiiiiiiiiiiiiiihhhhhhhhhhhhhhhhhhhhhhhhhhhhhhhgggggggggggggggggggggggggggggggggggggggghhhhhhhhhhhhhhhhhhhhhhhhhhhhhhhhhhhhhhhhhhhhhhhhhhhhhhhhhhhhhhhhhhhhhhhhhhhhhhhhhhhhhhhhhhhhhhhhhhhhhhhhhhhhhhhhhhhhhhhhhhhhhhhhhhhhhhhhhhhhhhhhhhhhhhhhhhhhhhhhhiiiiiiiiiiiiiiiiiiiiiiiiiiiiii
(PID.TID 0001.0001) //    698 lllllkkkjjiiiijjkkllllkkjjjiiiiihhhhhhhhhhiiiiiiiiiijjjjjjiiiiihhhhhhhhhhhhhhhhhhhhhhhhhhhhhhhhhhhhhhhggggggggggggggggggggggggggggggggggggggggggggggggggggggghhhhhhhhhhhhhhhhhhhhhhhhhhhhhhhhhhhhhhhhhhhhhhhhhhhhhhhhhhhhhhhhhhhhhhhhhhhhhhhiiiiiiiiiiiiiiiiiiiiiiiiiiiiiiiiiiiiiiiiiiiiiiiiiiiiiiiiiiiiihhhhhhhhhhhhhhhhhhhhhhhhhhhhhhhhhhhhhhhhhhhhhhhhhhhhhhhhhhhhhhhhhhh
(PID.TID 0001.0001) //    697 jjjjjjjjjjjjkkklllkkkjjiiiiiiihhhhhhhhiiiiiiiiiiiiiiiiiiihhhhhhhhhhhhhhhhhhhhhhhhhhhhhhhhhhhhgggggggggggggggggggggggggggggggggggggggggggggggghhhhhhhhhhhhhhhhhhhhhhhhhhhhhhhhhhhhhhhhhhhhhhhhhhhhhhhhhhhhhhhhhhhhhhhhhhhhhhhiiiiiiiiiiiiiiiiiiiiiiiiiiiiiiiiiiiiiiiiiiiiiiiiijjjjjjjjjjjjjjjjjjjjjjiiiiiiiiiiiiiiiiiiiiiiiiiiiiihhhhhhhhhhhhhhhhhhhhhhhhhhhhhhhhhhhhhhhhhhhh
(PID.TID 0001.0001) //    696 iiiijjkklllllkkkjjiiihhiiijjjjjjjiiiiiiihhhhhhhhhhhhhhhhhhhhhhhhhhhhhhhhhhhhhhhhhhhhhhhhhhhhhhhhhhhhhhhhgggggggggggghhhhhhhggggggggghhhhhhhhhhhhhhhhhhhhhhhhhhhhhhhhhhhhhhhhhhhhhhhhhhhhhhhhhhhhhhhhhhhhhhhhhhhhhhhhhhhhhiiiiiiiiiiiiiiiiiiiiiiiiiiiiiiiijjjjjjjjjjjjjjjjjjjjjjjjjjjjjjjjjjjjjjjjjjjjjjjjjjjjjjjjjjjjiiiiiiiiiiiiiiiiiiiihhhhhhhhhhhhhhhhhhhhhhhhhhhhhhhhhhh
(PID.TID 0001.0001) //    695 jkkkllllkkkjjiihhhhhiiijjkkllllkkjjiiiihhhhhhhhhhhggggggghhhhhhhhhhhhhhhhhhhhhhhhhhhhhhhhhhhhhhhhhhhhhhhhhhhhhhhhhhhhhhhhhhhhhhhhhhhhhhhhhhhhhhhhhhhhhhhhhhhhhhhhhhhhhhhhhhhhhhhhhhhhhhhhhhhhhhhhhhhhhhhhhhhhhhhhhiiiiiiiiiiiiiiiijjjjjjjjjjjjjiiiiiijjjjjjjjjjjjjjkkkkkkkkkkkkkkkkkkkkkkkkkkkkkklllllllkkkkkkkkkkkkkkkkjjjjjjjjiiiiiiiiiiiiiiiiiiiiiiiiihhiiiiiiiiiiiihhhhh
(PID.TID 0001.0001) //    694 llkkkjiiihhhhhhhhiiijjkkklllllkkjjiihhhhhhhhhhhhhhggghhhhhhhhhhhhhhhhhhhhhhhhhhhhhhhhhhhhhhhhhhhhhhhhhhhhhhhhhhhhhhhhhhhhhhhhhhhhhhhhhhhhhhhhhhhhhhhhhhhhhhhhhhhhhhhhhhhhhhhhhiiiiiiihhhhhhhhhhhhhiiiiiiiiiiiiiiiiiiiiiijjjjjjjjjjkkkllllkkkkkkkkkkkkkkllllllllllllmmmmmmmmmmmmmmmmmmmmmmmmmmmmmmmmmmmmmmmmlllmmmmmmlllllllllkkkkkjjjjjjjiiiiiiiiiiiiiiiiiiiiiiiiiiiiiiiihhh
(PID.TID 0001.0001) //    693 lkjihhhggggggghhhiiijjjjkkkkjjjiiihhhggggggghhhhhhhhhhhiiiiiiiiiiiiiiiiiiiiiiiiiiiiiiiiiihhhhhhhhhhhhhhhhhhhhhhhhhhhhhhhhhhhhhhhhhhhhhhhhhhhhhhhhhhhhhhhhhhhiiiiiiiiiiiiiiiiiiiiiiiiiiiiiiiiiiiiiiiiiiiiiiiiiijjjjjjkkkkkkkkkkklllmmnnoonnnnnooooooooooooppppppppppppppooooooooooonnnnnnnnnnnnnnnnnnnnnnnnnnnnnnnnnnnnnnnnnnmmmmmmllllkkkkkjjjjjjiiiiiiiiiiiiiiiiiiiiiiiiiii
(PID.TID 0001.0001) //    692 lkjihhhhhhhghhhhiiiihhiiiiiihhhhhhhhggggghhhhhhiijjkkkklllllllllllkkkkjjjjjjjiiiiiiiiiiiiiihhhhhhhhhhhhhhhhhhhhhhhhhhhhhhhhhhhhhhhhhhhhhhhhhhhhiiiiiiiiiiiiiiiiiiiiijjjjjjjjjjjkkkkkkkkkkkkkkkjjjjkkkkkkkkkkkklllllmmmnnnnooopppqqrrstttttttttttttttttttttuuuuuuutsssrrrrrqqqqqqqppppppppppppppppppppppppoooooooooooooooooooooooonnnnnnmmmmmmlllkkkkkjjjjjjjjjjiiiijjjjjjjjj
(PID.TID 0001.0001) //    691 mllkkjjjjjjjijjjjiiiihhiiiiiiiiijjjjjjjjjkkkllmmnnnooooooopppppppoonnmllkkkjjiiiiiiiiiiiiiiiihhhhhhhhhhhhhhhhhhhhhhhhhhhhhhhhhhiiiiiiiiiiiiiiiiiiiiiijjjjjjjjjjjjjkkkkkkkllllmmmmmnnnnonoonnnnnmmmmnnnnnnnnoooopppqqrrsstttuuvvwwwwxxxxxxxxxxxxxxxxxxxxxxxxxyyyxxwvuutttssssrrrrrrrrrrrrrrrssssrrrrrrrrrrrrqqqqqqqqqqqppppppppppppppppppppppooooonnnnnnnnmmmmmmmmmmmmmmmmmmm
(PID.TID 0001.0001) //    690 nnnmmmmmmmlllkkklkkkkjkkklllmmnnnopppqqqqqrrssttttttssrqqqqqqqppppoonmmllkkjjiiiiiiiijjjjjjjiiiihhhhhhhiiiiiiiiiiiiiiiiiiiiiiiiiijjjjjjjjjjkkkkkkkkkkkkkkkkklllllmmmmnnnnnooppqqrrssttttttttsssrrrrrrrrrrrssttuuvvwwwwxxxxyyyyyzzzzyyyyyyyyzzzyyyyyyyyyyyyyyzzyyxxwvvuuutttttssssttttttttttttuttttttttttttttssssssrrrrrrrrrrrrrrrrrrrrrrrrrrrrrrrrrqqqqqqqqqqqqqqqqqqqqqqqqq
(PID.TID 0001.0001) //    689 llllllllllllllllmmmnnnooppqrrstttuuvvvvvvvwvvvwwwwvvutsrrqqqpppoonmmmlllllkkjjjjjjjkkkkkkklllkkkkkkkkkkkkkkkkkkkkkkkkkkkjjkkkkkkkkkllllllmmmmmmmmmmnnnnnnnooooopppqqqqrrrssttuvvwwxxxxxyyxxxxxxwwwwwwwvvwwwxxxyyyyyzzzzzzzzzzzzzzzzzzzzzzzzzzzzzzzzzzzzzzzzzzzyyxxwwvvvuuuuttttttuuuuuuuuvvvvvvvvvvvvvvvvvvuuuuuuttttttttttttttstttttttttttttuuuuutttttttttttttttttttttttuuu
(PID.TID 0001.0001) //    688 kkkkkkkkllmmnnnoppqqrrsttuuuvvwwxxxxxxxwwwwvvvvuuuttsrrqqqqpppoonnnmmmmmmmmllllklllmmmmnnnoooooooooppppppoooooonnnnnnnnnnnnnnnnnnoooopppppqqqqqqqqqqrrrsssssstttuuuvvvvwwwxxxyyyzzzzzzzzzzzzzzzzzzzyyyyyyyyzzzzzzzzzzzzzzzzzzzzzzzzzzzzzzzzz+++zzzzzzzzzzzzzzyyyyxxwwwvvuuuuuuuuuuvvvvvvvvvvvwwwwwwwwwwwwwwwwwwwvvvvvvvvvvvvvvvvuuuuuuvvvvwwwwxxwwwwvvvvvvvvvvwwwwwwwwwwxxxx
(PID.TID 0001.0001) //    687 nonnnmmnnoppqqrrsttuuvvvwwwwwxxxxxxxxxwwwvvuutttssrqqqppppppppooonnnnnooooooppppppqqrrrrsttuvvvvvvvvwwvvuutssrrrrrrrrssttttttttttttttuutttuuuvvvuuuuvvvwwwwwxxxxxxyyyyyzzzzzzz+++++zzzzzzzzzzzzzzzzzzzzzzzzzzzzzzzzzzzzzzzzzzzzzzzzzz+++++++++++zzzzzzzzzzz++++zzyxxxwwwvvvvvvvvvvvwwwwwwwwwwwwwwwwwwwwwwxxxxxxxxxxxxxxxyyyyyxxxwwwwwwwxxyyyzzzzyyyyxxxxxxxxxyyyyyyyyyzzzzzz
(PID.TID 0001.0001) //    686 pppppppqqrsstttuuvvwwwwxxxxxxxxxxxxwwwvvvvutssrqqqpppppppppppppooooooppqqrsstttuuuuvvvvvwxxyzzzzzzzzyyyxxwvvuuuuuuuuvwxyyyzzyyyyyxxxxxxxxxxxxxxxxxxxxyyyyyyyyyyyyyzzzzzzzzzzzz++++++++++++++++++++zzzzzzzzzzzzzzzzzzzzzzzzzzzz+++++++++++++++++++zzzzzzzzzzzzzzzzyyyyyxxxwwwwwwwwwwwwwwwwwwwwxxxxxxxxxxxxxxxxxyyyyyyzzzz+++zzzzzyyyxxyyyzzzzzz+zzzzzyyyyyyyyzzzzzzzzzzzzzzzz
(PID.TID 0001.0001) //    685 oopqqqqrrtuuvvvvwwwwxxxxxxxxwwwwwwwvvvvvuuutsrqqpppppppppppppppppppqqqrstuvwxxxxyyyyyyyyzzzzzzzzzzyyyyyxxxwwwwwwwwxxyyzzzzz+++++zzzzzzzzzzzyyyyyyyyyyyyyyyyyyyyyyyyyyzzzzzzzzzzz++++++++++++++++++++++++++zzzzzzzzzzzzz+++++++++++++++++++++++++++++++++zzzzzzzzzzz...zyyyxxxxxxxxxxxxxxxxxxxxxxxxxxxxxxxxxxyyyyyyzzzzz++++++++zzzzzzzzzzzzzzzzzzzzzzzyyyyyzzzzzzzzzzzzzzz+.
(PID.TID 0001.0001) //    684 noppqqqrrstuvvwwwwwwwxxxxxwwwwwwwvvvvvvuuuutsrrqqqqpppqqqqqqrrrssssttuvwwxyyzzzzzzz+++++++++++zzzzzzzzzzzyyyyyyyyyyzzzzzzzzzzzzzzzzzzzzzzzzzzzzzzzzzzzzzzzyyyyyyyyyyyyyzzzzzzzzz++++++++++++++++++++++++++++++zzzzzzzz+++++++++++++.+++.++.+++++++++++++++++++........+zzzyyyyyxxxxxxxxxxxxxxxxxxxxxxxxxyyyyyyyyyyzzzzz++++++++...++zzzzzzzzzzzzzzzzzzzyyyzzzzzzzzzzzzzzzzzz
(PID.TID 0001.0001) //    683 mmnnooppppqstuvvwwwwwxxxxxwwwwwwwwvvvvvvvuuuttttssssssstttuuvvvvwwwxxyyyzzzzz++++++++++++++++++++++++++++++zzzzzzzzzzzzzzzzzzzzzzzzzzzzzzzzzzzzzzzzzzzzzzzzzyyyyyyyyyyyzzzzzzzzzzz+++++++.....+++++++++++.....++zzzz+++++++++++++++++++++++++++.........+++++++++++++++zzzzzyyyyyxxxxxxxxxxxxxxxxxxxxyyyyyyyyyyyzzzzzzz++++++++++++++++zzzzzzzzzzzzzzzzzzyzzzzzzzzzzzzzzzzzz
(PID.TID 0001.0001) //    682 kllmmnnnnopqrstuvvvwwwwxxxwwwwwwwwwwwvvvvvvvvvvwwwwwwwwxxyyyyyzzyyyzzzzz+++++++++++++++++++++..++++++++++++++++++++zzzzzzzzzzzzzzzzzzzzzzzzzzzzzzzzzzzzzzzzzzzzzzyyyyyyzzzzzzzzzzzzzzzzzzz+++++++++..+++++++zzzzzzz++++++++++++++++++++.....+.++++++++++++++++++++zzzzzzzzzzzyyyyyyyxxxxxxxxxxxxxxxxxyyyyyyyyyzzzzzzzzzz++++++++++++++++++++zzzzzzzzzzzzzzzzzzzzzzzzzzzzzzzz
(PID.TID 0001.0001) //    681 llllmmmmnnopqrrssttuvvwwwwwwwwwwxxxxxwwxxxxxxxyyyzzzzzz+++++++++zzzzzzzz++++++++........++++..+++............+++++++zzzzzzzzzzzz++++++++zzzzzzzzzz+++zzzzzzzzzzzzzyyyyyyyyyyyyyyyyyyyzzzzzzzz+++++++++++++++++zzzzz+++++++++zzz+++....+++++++++++++++++zzzzzzzzzzzzzzzzzzzyyyyyyyyyyyxxxxxxxxxxxxxxxxyyyyyyyyyzzzzzzzzzzzz+++++++++++++zzz+zzzzzzzzzzzzzzzzzzzzzzzzzzzzzzzzz
(PID.TID 0001.0001) //    680 lllllllllmmnnooppqqrsttuvvwwwwwwxxxxxxyyyyyyzzzzz+++++++++++++++++..++.+++++............+....................++++++zzzzzzzzzzzz+++++zzzzzzzzzzzzzzzzzzzzzzzzzzzzzyyyzzzzyyyyyyyyyyyyzzzzzzzzzzzzzzzzz++++++++++zzzzzzzzzzzzzzzzzzz+++++++++++++++++zzzzzzzzzzzzzzzzzzzzzyyyyyyyyyyyyxxxxxxxxxxxxxxxxxxxxyyyyyyyzzzzz+++++zzzzzzzzzzzzzzzzz+++++++zzzzzzzzzzzzzzzzzzzzzzzzzzz
(PID.TID 0001.0001) //    679 mmmllllllllllllmmmnnoppqrsuuvvwwwxxxyyyzzzzzz+++...++++++++...+++........+++++++++.......................++++++++zzzzzzzzzzzzzzzzzzzzzzzzzzzzzzzzzzzzzyyyyyyyyyyyyzzzzzzzzyyzzzzzzzzzzzzzzzzzyyyzzzzzzzzzzz++++zzzzzzzzzzzzzzzzzzzzzzzzzzzzzzzz+zzzzzzzzzzzzzzzzzzzzzzzyyyyyyyyyyyyyxxxxxxxxxxxxxxxxxxxxyyyyyyzzzz++++++++zzzzzzzzzzzzzzzzz+++++zzzzzzzzzyyyyzzzzzzzzzzzzzzz
(PID.TID 0001.0001) //    678 nnmmmlllllllllllkkllmmnopqrstuuvvwxxyyzzzzzz++...........++....+++.......+...+......+++++++++.......++++++++zzzzzzzzzzzzzzzzzzzzzzzzzyyyzzzzzzzzzyyyyyyyyzzzzzzzzzzzzzzzzzzzzzzzzzzzzzzzzzzzzzzzzyyyyyzzzzzzzzzzzzzzzzzzzzzzzzzzzzzzzzzzzzzzzzzzzzzzzzzzzzzzzzzzzzzzzzyyyyyyyyyyyyyyyxxxxxxxxxxxxxxxxxxxyyyyyyzzzzz+++++++zzzzzzzzzzzzzzzzzz+++zzzzzzzzzzyyyyyyzzzzzzzzzzzzz
(PID.TID 0001.0001) //    677 nnnnnmmlllllkkkjjjklmnppqqrrssttuvwxyzzzzzz+++++++...............++..........+...+++++++++++++++++++++zzzzzzzzzzzzzzzzzzzzzzzzzzzzzzzzzzzzzzzzzzzzzzzzzzzzzzzzzzzzzzzzzzzzzzzzzzzzzz++zz++++zzzzzzyyyyyyyyzzzzzzzzzzzzzzzzzzzzzzzzzzzzzzzzzzzzzzzzzzzzzzzzzzzzzzzzzzzyyyyyyyyyyyyyyyyyyyyxxxyyyyyyyyyxxyyyyyyyzzzzzzzzzzzzzzzzzzzzzzzzzzzzzzzzzzzzzzzzzzzzzzzzzzzzzzzzzzzzzz
(PID.TID 0001.0001) //    676 noonnnnnnnnnmmlkkkklnoppqqqqrrrsttuvwyyzzzzz++++++++...........+...+................++.++++++++++++zzzzzzzzzzzzzzzzz++++++++zzzzzzzzzzzzzzzzzzzzzzzzzzzzzzzzzzzzzzzzzzzzzzzzzzzzzzzzzzzzzzzzzzzzzzzyyyyyyyyyzzzzzzzzzzzzzzzzzzzzzzzzzzzzzzzzzzzzzzzzzzzzzzzzzzzzzzzzzzyyyyyyyyyyyyyyyyyyyyyyyyyyyyyyyyyyyyyyyyzzzzzzzzzzzzz++zzzzzzzzzzzzzzzzzzzzzzzzzz+++++zzzzzzzzzzzzzzzz
(PID.TID 0001.0001) //    675 nnooooooooooonnmmmmnnoooppqqqqqqrrstvwyyzzzzz+++++++.......+++++...+++..........+++++++++++++++++zzzzzzzzzzz+++++++++++++zzzzzzzzzzzzzzzzzzzzzzzzzzzzzzzzzzzzzzzzzzzzzzzzzzzzzzzzzzzzzzzzzzzzzzzzzyyyyyyyyzzzyyyzzzzzzzzzzzzzzzzzzzzzzzzzzzzzzzzzzzzzzzzzzzzzzzzzzzyyyyyyyyyyyyyyyyyyyyyyyyyyyyyyyyyyyyyyyyyyzzzzzzzzzzzzzzzzzzzzzzzzzzzzzzzzzzzzzzzzz+++++zzzzzzzzzzzzzzzzz
(PID.TID 0001.0001) //    674 mmnoooppppoooonnnnoopppppqqqqppoooprtvwxyzzzzz++++++++.....+++++++++..+.......++++++......+++++++++zzzzzzzzzzzzzzzzzzzzzzzzzzzzzzzzzzzzzzzzzzzzzzzzzzzzzzzzzzzzzzzzzzzzzzzzzzzzzzzzzzzzzzzyyyyyyzzzzzzzzzzzzzzzzzzzzzzzzzzzzzzzzzzzzzzzzzzzzzzzzzzzzzzzzzzzyyyzzyyyyyyyyyyyyyyyyyyyyyyyyyyyyyzyyyyyyyyyyyyyyyyzzzzzzzzzzzzzzzzzzzzzzzzzzzzzzzzzzzzz++++++zzzzzzzzzzzzz++++++
(PID.TID 0001.0001) //    673 lllmmmnopppppoonnoopqqqqqqqqqqpommlnpruwxyzzzzzzzz+++zzzz+z++++..............++++++++++.......+++++++zzzzzzzzzzzzzzzzzzzzzzzzzzzzzzzzzzzzzzzzzzzzzzzz+zzzzzzzzzzzzzzzzzzzzzzzzzzzzzzzyyyyyyyyyyzzzzzzzzzzzzzzzzzzzzzzzzyzzzzzzzzzzzzzzzzzzzzzzzzzzzzzzzzzzzyyyzzyyyyyyyyyyyyyyyyyyyyyyyyyyyyyyyyyyyyyyyyyyyyyyyyzzzzzzzzzzzzzzzzzzzzzzzzzzzzzzzzzzzz+++zzzzzz+zzzzzz++++++++
(PID.TID 0001.0001) //    672 lllllllmnnnnmmmmmmmnooppppqqqqqpnlllnqsuwxyzzzzzzzzzzzzz+......++++++......++++++++++++++......++++++++zzzzzzzzzzzzzzzzzzzzzzzzzzzzzzzzzzzzzzz+++++zzzzzzzzzzzzzzzzzzzzzzzzzzzzzyyyyyyyyyyyzzzyyyyyzzzzzzzzzzzzzzzzzzzzzzzzzzzzzzzzzzzzzzzzzzzzzzzzyyyyyyzzzzzzzzzzzzyyyyyyyyyyyyyyyyyyyyyyyyyyyyyyyyyyyyyyyyyzzzzzzzzzzzzzzzzzzzzzzz+++++++++++++++zzzzzzzzzzz+++++++++++++
(PID.TID 0001.0001) //    671 llllllllllllkkklllllmnnnoooppqqqomlmoprsuvwxyyyzzzzzzzzz+++++++++..........++++++++++++..........++++++zzzzzzzzzzzzzzzzzzzzzzzzzzzzzzzzzzzzzz+++++zzzzzzzzzzzzzzzzzzzzzzzzzzzzzzyyyyzzzzzzzzzzzzzzzzzzzzzzzzyyyyyyyzzzzzzzzzzzzzzzzzzzzzzzzzzzzzzzzzyyyyzzzzzzzzzzzzzzzzzzzzzzzyyyyyyyyyyyyyyyyyyyyyyzzzyyyzzzzzzzzzzzzzzzzzzz+++++++++++++++++++++++zzzzzzzzzzz++++++++++++
(PID.TID 0001.0001) //    670 lllllllllllkkkklllmmnnnnnnnnopqqonmmnppqrsuvwwxyyzzzzzzzz++.............+++++++zzz++++++++++.++++++++++++zzzzzzzzzzzzzzzzzzzzzzzzzzzzzzzzzzzzz++zzzzzzzzzzzzzzzzzzzzzzzzzzzzzzzzzzzzzzzzzzzzzzzzzzzzzzzzzzzyyyyyyyyyyyzzzyzzzzzzzzzzzzzzzzzzzzzzzzzzzzzzzzzzzzzzzzzzzzzzzzzzzzzzzzyyyyyyyyyyyyzzzzzzzzzzzzzzzzzzzzzzzzzzzzzzz+++++++++++++++++++++++++zzzzzzzzzz++++++++++++
(PID.TID 0001.0001) //    669 llllllllllllllllllmnooonnnnnopqqpnmmnpqqqqrstuvwxyyyzzzzzz+++++........+++++zzzzzz++++++++++++++++++++++++zzzzzzzzzzzzzzzzzzzzzzzzzzzzzzzzzzzzzzzzzzzzzzzzzzzzzzzzzzzzzzzzzzzzzzzzzzzzzzzzzzzzzzzzzzzzzzzzyyyyyyyyyyyzzzzzzzzzzzzzzzzzzzzzzzzzzzzzzzzzzzzzzzzzzzzzzzzzzzzzzzzzzzzzzzzyyyyyyyyyzzzzzzzzzzzzzzzzzzzzzzzzzzzzz+++++++++++++++++++++++++++++++zzzzzz++++++++++++
(PID.TID 0001.0001) //    668 llllllllllllllllllmmnnnnnnnopqqqomlmnopqpppqqrsuvwwxxyyzzzzz+++++.....++++zzzzzzzz++++++++++++++++++++++++++zzzzzzzzzzzzzzzzzzzzzzzzzzzzzzzzzzzzzzzzzzzzzzzzzzzzzzzzzzzzzzzzzzzzzzzzzzzzzzzzzzzzzzzzzzzzyyyyyyyyyyyyyzzzzzzzzzzzzzzzzzzzzzzzzzzzzzzzzzzzzzzz++++zzzzzzzz++++++......++zzzyyyyyyyyyzzzzzzzzzzzzzzzzzzzzzz++++++++++++++++++++++++++++++++++++++++++++++++++++
(PID.TID 0001.0001) //    667 llllllllllllllllllllllmnnnnoppppnmmnopqqppppppqrstuvvwwxyyzzzzz+++++.++++zzzzzzzzzzzzzzzzzzzz++++++++++++++++z++++zzzzzzzzzzzzzzzzzzzzzzzzzzzzzzzzzzzzzzzzzzzzzzzzzzzzzzzzzzzzzzzzzzzzzzzzzzzzzzzzzzzzzzzyyyyyyyyyyzzzzzzzzzz++++zzzzzzzzzzzzzzzzzzzzzzzzzzz+++++zzzz+++++...........+++zzzyyyyyyzzzzzzzzzzzzzzzzzzzzzzz++++++++++++++++++++++++++++++++++++++++++++++++++++
(PID.TID 0001.0001) //    666 mmmmmlllllllllllllllllmnnnnooponmlmopqqqppppppppqrsttuuvwxxyyyzzzzzz++++zzzzzzzzzzzzzzzzzzzzzzzzz++++++++++++zzz++zzzzzzzzzzzyzzzzzzzzzzzzzzzzzzzzzzzzzzzzzzzzzzzzzzzzzzzzzzzzzzzzzzzzzzzzzzzzzzzzzzzzzzzzzyyyyyyzzzzzzzzzz+++++zzz++zzzzzzzzzzzzzzzzz+++++++++++++++..............+++++zzzzzzzzzzzzzzzzz+++zz+++zzzzz++++++++++++++++++++++++++++++++++++++++++++++++++++++
(PID.TID 0001.0001) //    665 mnoonmllllllllllllllllmnoonnoppommnopqqqpppppppppqqrsstuvwwxxyyzzzzzzzzzzzzzzzzzzzzzzzzzzzzzzzzzz++++++++++zzzzzzzzzzzzzzzzyyyyyzzzzzzzzzzzzzzzzzzzzzzzzzzzzzzzzzzzzzzzzzzzzzzzzzzzzzzzzzzzzzzzzzzzzzzzzzzzzzzzzzzzzzzzzzzz+++++++++++zzzzzzzzzzz++++++.......................+++++zzzzzzzzzzzzzzzzzzzz+++++++++++++++++++++++++++++++++++++++++++++++++++++++++++++++++++++
(PID.TID 0001.0001) //    664 kmnopoonmlllllllllllmmnooooooppommnoppppppppppppppqqrstuvwwxxyyyzzyyyyyyyzzzzzzzzzzzz++zzz+++++++++++++++zzzzzzzzzzzzzzzzzyyyyyyyzzyyyyyzzzzzzzzzzzzzzzzzzzzzzzzzzzzzzzzzzzzzzzzzzzzzzzzzzzzzzzzzzzzzzzzzzzzzzzzzzzzzzzzzzzzzz+++++zzzzzz+++++++......................++++++++zzzzzzzzzzzzzzzzzzzzzzzzz+++++++++++++++++++++++++++++++++++++++++++++++++++++++++++++++++++++
(PID.TID 0001.0001) //    663 ijlmoppponmlllllllmmnnnnnnnnooponmmmoooooppppppppppqrstuvwwxxyyyyzyyyyzzzzzzzz++++++++++++++++++++++++zzzzzzzzzzzzzzzzzzyyyyyyyyyyyyyzzzzzzzzzzzzzzzzzzzzzzzzzzzzzzyyyyyyyzzzzzzzzyyyyyyyyzzyyzzzzzzzzzzzzzzzzzzzzzzzzzzzzzzzzzzzzzzzzz++++...................+++++++++++zzzzzzzzzzzzzzzzzzzzzzzzzzzzz++++++++++++++++++++++++++++++++++++++++++++++++++++++++++++++++++++++
(PID.TID 0001.0001) //    662 iijjklnoponmlllllllllmlllllmnooonmlmmnoooooppppppppqqrsuuvwwxxyyyzzzzzzzzzzzzz++++++++++++++++++++zzzzzzzzzzzzzzzzzzyyyyyyyyyyyyyyyzzzzzzzzzzzzzzzzzzzzzzzzzzzzzzzzzyyyyyyyyyyyyyyyyyyyyyyyyyyyzzzzzzzzzzzzzzzzzzzzzzzzzzzzzzzzzzzzz+++++...............+++++++zzzzzzzzzzzzzzzzzzzzzzzzzzzzzzzz+++z++++++++++++++++++++++++++++++++++++++.+++++++++++++++++++++++++++.......
(PID.TID 0001.0001) //    661 iiiiiijkmnoonmlllkkkkkjjjkklmnooonmmmmmnnoooopppppppqrrstuvvwwxyyyzzzzzzzzzz++++++++++++++++++++zzzzzzzzzzzzzzzzzzzzyyyyyyyyyyyyyyyzzzzzzzzzzzzzzzzzzzzzzzzzzzzzzzzzzzzzzzzzyyyyyyyyyyzzyyyyyyzzzzzzzzzzzzzzzzzzzzzzzzzzzzzzzzzzz++++..............++++++++zzzzzzzzzzzzzzzzzzzzzzzzzzz++++++++++++++++++++++++++++++++++++++++++++++++++++++++++++++++++++++++++.++.........
(PID.TID 0001.0001) //    660 iiiiiiiijklmmmllllkjjjjijjklmmnoonnmmllmnnoooooppppppqqrrsttuvwwxyyzzzzzzzzzzz+++++++++++++++++zzzzzzzzzzzzzzzyyyyyyyyyyyyyyyyyyyzzzzzzzzzzzzzzzzzzzzzzzzzzzzzzzzzzzzzzzzzzzzzyyyyyyyyyzzyyyyzzzzzzzzzzzzzzzzzzzzzzzzzzzzzzzzzz+++++..............++++++zzzzzzzzzzzzzzzzzzzzzzzzzzz++++++++++++++++++++++++++++++++++++++++++++++++++++++++++++++++++++++++++++.............
(PID.TID 0001.0001) //    659 jjjjjjjjjjkkkkkkkkkjjkkjijklllmmnooommlmmnoooooooopppppqqrrsstuvwxxyyyzzzzzzzz++++++++++zzzz+zzzzzzzzzzzzzyyyyyyyyyyyyyyyyyyyyyyzzzzzzzzzzzzzzzzzzzzzzzzzzzzzzzzzzzzzzzzzzzzzzyyyyyyyyyzzzzzzzzzzzzzzzzzzzzzzzzzzzzzzzzzzzzzzz++++............+++++++zzzzzzzzzzzzzzzzzzzzzzzzzzzz+++++++++++++++++++++++++++++++++++++++++++++++++++++++++++++++++++++++++++................
(PID.TID 0001.0001) //    658 jjjjjjjjjjjjjjjjjjjjkkkjjkkllllmnoppoonmnnooppoopppppppqqqrrrssuvwxyyyyzzzzzz+++++++++zzzzzzzzzzzzzzyyyyyyyyyyyyyyyyyyyyyyyyyyyyzzzzzzzzzzzzzzzzzzzzzzzzzzzzzzzzzzzzzzzzzzzzzyyyyyyyyyyyyzzzzzzzzzzzzzzzzzzzzzzzzzzzzzzzzzz+++++............++++zzzzzzzzzzzzzzzzzzzzzzzzzzzzzzzz+++++++++++++++++++++++++++++++++++++++++++++++++++++++++++++++++++++++++++.++..............
(PID.TID 0001.0001) //    657 kkkjjjjjjjjjjjjjjjjjkkkkklkkllnoqqqqonnnooppppppppppppqqqrrrssttvwxyyyzzzzzzzzzzzzzzzzzzzzyyyyyyyyyyyyyyyyyyyyyyyyyyyyyyyyyyyyyyzzzzzyyyyyyyyyzzzzzzzzzzzzzzzzzzzzzzzzzzzzzyyyyyyyyyyyyyyyzzzzzzzzzzzzzzzzzzzzzzzzzzzzzzz++++++++......++.+++zzzzzzyyzzzzzzzzzzzzzzzzzzzzzz+++++++++++++++++++++++++++++++++++++++++++++++++++++++++++++++++++++++++++++++++++..............
(PID.TID 0001.0001) //    656 kllkkkkjjjjjjjjjjjjkklmlllmnnlstqqpmmnnooppppppppppqqqrrrsstttuvwwxyyyyyzzzzzzzzzzzyyyyyyyyyyyyyyyyyyyyyyyyyyyyyyyyyyyyyyyyyyyyyyzzzzyyyyyyyzzzzzzzzzzzzzzzzzzzzzzzzzzzzzyyyyyyyyyyyyyyyyyyzzzzzzzzzzzzzzzzzzzzzzzzzzzz++++...........++.++zzzzzzyyyzzzzzzzzzzzzzzzzzzzz+++++++++++++++++++++++++++++++++++++++++++++++++++++++++++++++++++++++++++++++++++++++.............
(PID.TID 0001.0001) //    655 klkklkkllkkkkkkkkllllnopononnpppoonlponnoppppppqqqqrrrsstttuuvwxxxxxyyyyyyyyyyyyyyyyyyyyyyyyyyyyyyyyyyyyyyyyyyyyyyyyyyyyyyyyyyyyzzzzzzzyyzzzzzzzzzzzzzzzzzzzzzzzzzzzzzzyyyyyyyyyyyyyyyyyyyyyyyzzzzzzzzzzzzzzzzzzzzzz+++++++++.......+..+++zzzzzzyyyyzzzzzzzzzzzzzzz+++++++++++++++++++++++++++++++++++++++++++++++++++++++++++++++++++++++++++++..........+++++.............
(PID.TID 0001.0001) //    654 mnnnlkklmlllmlmnooooonoooopppokllmoooooooppqqqqqqrrrssttuuuvwxxyyyxyyyyyyyyyyyyyyyyyyyyyyyyyyyyyyyyyyyyyyyyyyyyyyyyyyyyyyyyyyyyyzzzzzzzzzzzzzzzzzzzzzzzzzzzzzzzzzzzzyyyyyyyyyyyyyyyyyyyyyyyyyzzzzzzzzzzzzzzzzzzz++++++++++++++++++...+++zzzzzzyyyyyyzzzzz++++zzzzzzzzz++++++++++++++++++++....++++++++++++++++++++++++++++++++++++++.....................+..................
(PID.TID 0001.0001) //    653 llmmmlllmmmnnnononoppooonmlmoooonooooooopppqqqqqrrrsstttuuvvwxyyyyyyyyyyyyyyyyyyyyyyyyyyyyyyyyyyyyyyyyyyyyyyyyyyyyyyyyyyzzzzzzzzzzzzzzzzzzzzzzzzzzzzzzzzzzzzzzzzyyyyyyyyyyyyyyyyyyyyyyyyyyyzzzzzzzzzzzzzzzzzzzzz+++++++...........++++zzzzzzzyyyzzzzzzzzz++++++++++++++++++++++++++++++++++.++++++++++++++++++++++++++++++++++++++++.......................++...............
(PID.TID 0001.0001) //    652 mmmmnnnnnoooonpppqonklnpppoopooononoooopppppqqqqrrrsstttuuvvwxxyyyyyyyyyyyyyyyyyyyyyyyyyyyyyyyyyyyyyyyyyyyyyyyyyyzzzzzzzzzzzzzzzzzzzzzzzzzzzzzzzzzzzzzzzzzzzzzzyyyyyyyyyyyyyyyyyyyzyyyyyyzzzzzzzzzzzzzzzzzzzzz++++++++++..........+++zzzzzzzzzzzzzzzzzzzzzzzz++++++++++++++++++++++++++..+++++++.+++++++++++++++++++++++++++....+++++.......................................
(PID.TID 0001.0001) //    651 mnnnpoooqqoqspnnnpoppooonnnonnnnnnoooooppppppqqqqrrrsstttuuvwwxxxxxyyyyyyyyyyyyyyyyyyyyyyyyyyyyyyyyyyyyyyyzzzzzzzzyyzzzzzzzzzyyyyyyyyzzzzzzzzzzzzzzzzzzzzzzzzzzyyyyyyyyyyyzzzzzzzzzzzzzzzzzzzzzzzzzzzzzzzzzzzz++++++++.........++++zzzzzyyyzzzzzzzzzzzzz++zzz++++++++++++++z++++++++++...............+++++++++..+++++++++++++++++++++.......................................
(PID.TID 0001.0001) //    650 pppqrqpnnllnpooooopppnnnnnnmnnnnnnooooooopppppqqqqrrrsstttuuvvvwxxxyyyyyyyyyyyyyyyyyyyyyyyyyyyyyyyzzzzzzzzzzzzzzzzzzzzzzzzyyyyyyyyyyzzzzzzzzzzzzzzzzzzzzzzzzzzzyyyyyyyyyyzzzzzzzzzzzzzzzzzzzzzzzzzzzzzzzzzzz+++++++++...........++zzyyyyyyzzzzzzzzzzzzzz++++++++++++++++zzzzzz+++++++................++++++++++.++++++...+..+.++++++++......................................
(PID.TID 0001.0001) //    649 pppnnopqoooooooponnonmmnmmmmmmnnnnnnnooooooopppppqqqrrssstttuuvwxxyyyyyyyyyyyyyyyyyyyyyyyyyyyyyyzzzzzzzzzzzzzzzzzzzzzzyyyyyyyyyyzzzzzzzzzzzzzzzzzzzzzzzzzzzzzzyyyyyyyyyyzzzzzzzzzzzzzzzzzzzzzzzzzzzzzzzzzzzzzz++++++...........+++zzyyyyzzzzzzzzzzzzzzzzzzzz+++zzzzzzzzzzzzzzzz++++++...............++++++++++..++++++++++.........++++++++.................................
(PID.TID 0001.0001) //    648 ppppppponoponmmmmmmllllmmmmmmmmmmmnnnnnnnoooooppppqqqqrrssstuuvvxxyyyyyyyyyyyyyyyyyyyyyyyyyyyyyyzzzzzzzzzzzzzzzzzzzyyyyyyyyyyyyyyzzzzzzzzzzzzzzzzzzzzzzzzzzzyyyyyyyyyyyyzzzzzzzzzzzzzzzzzzzzzz+++++zzzzzzzzz++++...............+++zzzyyyzzzzzzzzzzzzz+zzzzzzzzzzzzzzzzzzzz++++++++++...............+++++++....++++.....++++...........++++++..++............................
(PID.TID 0001.0001) //    647 pponomnnmlllmlllllllllllllllllmmmmmmmnnnnnnooooooppppqqqrrrsttuuvwxxyyyyyyyzzzzyyyyyyyyyyyyyyyyyyyyyyyzzzzzzzzzyyyyyyyyyyyyyyyyyyyzzzzzzzzzzzzzzzzzzzzzzzzzyyyyyyyyyyyzzzzzzzzzzzzzz++++++++++++++zzzzzzzz++++++................++zzzzyyzzzzzzzzzz++++++++zzzzzzzzzzzzzzzz++++++++................++++++.......++++.........................................................
(PID.TID 0001.0001) //    646 mmmllllmlmllllllkkkkkkllllllllllmmmmmmnnnnnnnnooooooooppqqrrrrssttuvwxyyyyzzzzzzzzzzzyyyyyyyyyyyyyyyyyyyyzzzzzzzyyyyyyyyyyyyyzzzzzzzzzzzzzzzzzzzzzzzzzzzzzzyyyyyyyyyyzzzzzzzzzzzzzzz+++++++++++++zzzzzzzz++++++++++++++.++.......+++zzzzzzzzzzzzzz++++++++zzzzzzz+++++z+++++++++.................++++++.......++++++++......................+.+.............................
(PID.TID 0001.0001) //    645 lkkkllllllllkkkkkkkkkkkkllllllllllmmmmmmmnnnnnnnnnooooooopppqqqrrrsuvwxyyzzzzzzzzzzzzzzzzzyyyyzzzzzzzzzz+zzzzzzz+++zzyyyyyyyyzzzzzzzzzzzzzzzzzzzzzzzzzzzzzzzzzzzzzzzzzzzzzzzzzzzzzzzzzzzzzzzzzzzzzzzzzzzzzzzzzzzzz+++.++...........++zzzzzzzzzzzzzzz++++++zzzzzz++++++++++++++......................+++++..............+++.+...............++...............................
(PID.TID 0001.0001) //    644 kkkkkkkkkkkkkkkkkkkkkkkkkllllllllllmmmmmmmnnnnnnnnnnnnooooooooppqqrstvxyzzzzzzzzzzzzzzzzzyzz++++zz++++++++z++z++..+zz++zzzzyyyyzzzzzzzzzzzzzzzzzzzzzzzzzzzzzzzzzzzzzzz+++++++++++zzzzzzzzzzzzzzzzzzzzzzzzzzzzzzzzzz++++++............++++zzzzzzzzzzzzzzzzzzzzzzz++++++++++++.........................+++++..................+..............++.++............................
(PID.TID 0001.0001) //    643 kkkkkkkkkkkkkkkkkkkkkkkkkkllllllllllmmmmmmmmnnnnnnnnnnnnnnnnoooopqrrsuwyzzzzzzzzzzzzzzzyz++++.+++.+.+.++z+.+zz+..++z...+.+++zzzyyzzzzzzzzzzzzzzzzzzzzzzzzzzzzzzzzzzzzzz++++++++++++++zzz+zzzzzzzzzzzzz+++++zzzzzzzzzzzzzz++++++++++++++++++++zzzzzzzzzzzzzzzzzzzz+++++++++++++......................++++++++..............................++..+++...........................
(PID.TID 0001.0001) //    642 kkkkkkkkkkkkkkkkkkkkkkkkkkkklllllllllmmmmmmmmmmmmmmmnnnnnnnnnnooopqrstvzzzzzzzzzzz+zzzzzzzzzz+++......+++...+.....+..........++zyyzzzzzzzzzzzzzzzzzzzzzzzzzzzzzzzzzzzzzz+++++++++++++++++++++zzzzz++++++++++++++z+zzzz+++zzzzzzzz++++++++++++.++zzzzzzzzzzzzzzzzzz+++++++++++++.....................++++++...................................++++...........................
(PID.TID 0001.0001) //    641 kkkkkkkkkkkkkkkkkkkkkkkkkkkkkklllllllmmmmmmmmmmmmmmmmmmmmmnnnoooppqqsvyzzzzz++++++z+++z+++.+++z......++.............++++++++zzzzzzzzzzzzzzzzzzzzzzzzzzzzzzzzzzzzzzzzzzzz+zzzz+++z++++++++++++z+zz+++++++++++++++zzzz+++++++zzzzzz+++++++++++.....+zzzzzzzzzzzzzzzzzz+++++++++++.....................+++++...................................+++.............................
(PID.TID 0001.0001) //    640 kkkkkkkkkkkkkkkkkkkkkkkkkkkkkkkklllllllmmmmmmmmmmmmmmmmmmmmnnooppqruxzzzzzzz++.++++z+++.++..............................++zzzzzzz+++zzzzzzzzzzzzzzzzzzzzzzzzzzzzzzzzzzzzzzzzzz++++++++++++++++++++++++++++++++++++++++++++++++++++++++++++++++++...++++++++++++++++++++++++++.......................+++++...................................................................
(PID.TID 0001.0001) //    639 kkkkkkkkkkkkkkkkkkkkkkkkkkkkkkkkkkllllllllllllllllmmmmmmmmnnopqqruxzz+++z++.....+.++...................................+.......+..++++zzzzzzzzzzzzzzzzzzzzzzzzzzzzzzzzzzzzzzz++++++++++++++++++++++++++++++++++++++++++++++++++++++++++++++++++++++............++++++++++++++++.....................+++++...................................................................
(PID.TID 0001.0001) //    638 lkkkkkkkkkkkkkkkkkkkkkkkkkkkkkkkkkkkkllllllllllllllmmmmmnnprstwxyzzyz+++.++++++++++..................................................+++zz+++zzzzzzzzzzzzzzzzzzzzzzzzzzzz+++++++++++++++++++++++++++....++++++++++++++++++++++++++++++++++++++++++++................+++++++++++++++.................++++++..................................................................
(PID.TID 0001.0001) //    637 lllllllkkkkkkkkkkkkkkkkkkkkkkkkkkkkkkklllllllllllmmmnnopsuwxzz++++zzz++z++............................................................++.........++++zzzzzzzzzzzzzzz++z++++++++++++++++++++++++++++.......++++++++++++++++++++++++++++++++++++++++++++...............+..++++++++++++...............++++++.....+++++++.......................................................
(PID.TID 0001.0001) //    636 lmnnnmllkkkkkkkkkkkkkkkkkkkkkklllllllllllllllmmmnnprstuxzzzz+++z+++++z+++............................................................................++zzzzzzzzzzzzz++++++++++++++++++++++++++++++++....++++++++++++++++.+++++++++++++++++++..+++++++.......................+++++++.+++.............+++++++++++++...........................................................
(PID.TID 0001.0001) //    635 llmnnnmlllllllllklllllllmmmmllllmmmmmmmmmmmnopqrtuwyzzzzz+z+++++.+.++.+..................................................................................+++zzzzzz++++++++++++++++++++++++++++++++++++++++++++++++++.....+++++++++++++++......+++..............................+++++...................+++++..........++....................................................
(PID.TID 0001.0001) //    634 lmmmmmmmmmmmnooopppoppqqppoooonnnnnnmnnnopqssuvxzzzzzzzzz+++++++zzz++z+++..................................................................................+++++++++++++++++++++++.......+++++++++++++++++++++.....++..+++++++................++++.....................................................++++............+..+.................................................
(PID.TID 0001.0001) //    633 klmmmmmnnnopqrrssssssrrrrqqrrrrrponooopqrtuwxzzzzzzzzz++++++zzyz+++++..+.......................................................................................++++++++++++++++++++........++++++++++++++++...........................................................................................+++++++.........++....................................................
(PID.TID 0001.0001) //    632 jjkkklmopqrssttttttttttttttttttsqppppqrsuvxyzzzzzzzzz++zzzzzz+++.+++...............................................................................................++++++++++++++++.........++++++++++++..............................................................................................+++++++...............................................................
(PID.TID 0001.0001) //    631 jjjklmoqrssttttttttttttttttttttsrrqrrstvxyyzzzzzzzzz+zzzzzyzzz++.....................................................................................................+++++++++++++....+++++++++++++..+..............................................................................................++++++++...........+++.+++..............................................
(PID.TID 0001.0001) //    630 iijjkloqrstttttttuuuuuuutttttttsssttuvxyyyzzzzzzz+zzzzzzzzz+++.++.....................................................................................................+++++++++++.....+++++++++++...................................................................................................++++++..................................................................
(PID.TID 0001.0001) //    629 iiiijlnqrstttttttuuuuuuuutttttttuvwxyyyyyyyzzzzzzzzzzzzzzz++...+...................................................................+++.................................+++++++++++++...++++++++++.................................................................................................++++++++..................................................................
(PID.TID 0001.0001) //    628 jiiijkmprstttttttttuuuuuuuuuuuvvvwxyyyyyyyyyzzzzzzzzzzz++........................................................................++.+++...............................++++++++++++++.....++++++.+........................................................................................+.....+++++++++....................................................................
(PID.TID 0001.0001) //    627 jjjjkkloqrsssttttttuuuuuvvvwwwxxyyyyyyyyyyyyzzzzzzzzz+++.........................................................................++..+++zzz+++......................++++++++++++++++..................................................................................................++..++...+++++++......................................................................
(PID.TID 0001.0001) //    626 kkkkkkllpqrrsssttttuuuvvwwxxxyyyyyyyyyyyyzzzzzzzzzzzz+.+.+.............................................................................+++zzzzz++++...............++++++++..++.++++.......................................................................................................+..++++++.........................................................................
(PID.TID 0001.0001) //    625 kkkkklklnoqrsssttttuuvvwwxxyyyyyyyyyyyyyzzzzzzzzzzz++++.+..................................................................................+zzzzzzzzz+++++...+++++++++++.......++.+.........................................................................................................................................................................................
(PID.TID 0001.0001) //    624 kllllllmmnprssttttuuuvwwxyyyyyyyyyyzzzyyyyzzzzzzzzz++.+....................................++.+++++.+.......................................++zzzzzzzz+++++++++++++++.............+.........................................................................................................................................................................................
(PID.TID 0001.0001) //    623 klllllllmmnprstttuuuvwwxxyyyyyyyyyyzzyyyyyzzzzzzz+++......................................++++++++++++......................................++++zzzzzzz+++++++++++..........................................................................................................................................................................................................
(PID.TID 0001.0001) //    622 llllllllllmnpqsttuuvvwwxxyyyyyyyyyzzzyyzzzzzyzzzzz+++..................................++++++++++++++++....................................+++++++++zz+++++++++++...........................................................................................................................................................................................................
(PID.TID 0001.0001) //    621 lllmlllllmmnoqrttuvvwwxxxyyyyyyyzzzzzzzzzzzzzzzz+++.+..................................+++++++++++++++......................................++++.++++++++++++++++++.........................................................................................................................................................................................................
(PID.TID 0001.0001) //    620 mmmmmllmmmmnopqsttuvvwwxxyyyyyyzzzzzzzzzzzyz++++++....................................++++++++++++++++++.....................................+++++++.....+++++++++++........................................................................................................................................................................................................
(PID.TID 0001.0001) //    619 mmmmmmnnnnnnopqqrsttuvvwxyyyyyyzzzzzzzzzyyzzzz+++......................................++++z++++++++.........................................+++++++++....+...+++...........................................................................................................................................................................................................
(PID.TID 0001.0001) //    618 nnnnnnooooopqqqqqrssttuvwyyyyzzzzzzzzyyyyzz++.+........................................+++zz++++++............................................++++++++++++..................................................................................................................................................................................................................
(PID.TID 0001.0001) //    617 nnooooopppqqrrrrrsssttuvwyyyyzyzzyyyzzzzyz+..........................................++++++++++++.................................................++++++++..................................................................................................................................................................................................................
(PID.TID 0001.0001) //    616 oooppppqqrsssstssssttuvwxyyzzzzzzzzz++zzz+..++z+....................................++++++++++++.....................................................+++++..................................................................................................................................................................................................................
(PID.TID 0001.0001) //    615 pppqqqrrsstttttttttttuuvxyzzzzzzzzzz++++++++++...................................+++++++++++++..............................................................................................................................................................................................................................................................................
(PID.TID 0001.0001) //    614 qqrrrsstttuuuuuuuuuuuvvxyzzzzzzzz++++.+..++...................................++++++++++++++................................................................................................................................................................................................................................................................................
(PID.TID 0001.0001) //    613 sssttuuuuvvvvvvvvvvvwwyzzzzzzzz+++++........................................++zzzzz+++++....................................................................................................................................................................................................................................................................................
(PID.TID 0001.0001) //    612 ttuuuvvvvwwwwwwwwwxxyzz+zzzzz++...+++.....................................+++zzzzz++++++....................................................................................................................................................................................................................................................................................
(PID.TID 0001.0001) //    611 uuvvvwwwwxxxxyyyyyzzzzz+++++++++.........................................++++zzzzzz++++.....................................................................................................................................................................................................................................................................................
(PID.TID 0001.0001) //    610 uvvwwxxxxxyyyyyyzzzzzzz+++++.+.........................................++++++z+++zz++++.....................................................................................................................................................................................................................................................................................
(PID.TID 0001.0001) //    609 wxxxxyyyyyyyyyyyzzzzzz+++++..+.........................................++++++++++zzz+++.....................................................................................................................................................................................................................................................................................
(PID.TID 0001.0001) //    608 yyyyyyzzyyyyyyyyyzzz+++++++............................................+++++++++++zz++++....................................................++..............................................................................................................................................................................................................................
(PID.TID 0001.0001) //    607 yzzzzzzzzzyyyyyyyyzz++++..............................................++++++++++++z+++++....................................++++............++..............................................................................................................................................................................................................................
(PID.TID 0001.0001) //    606 zzzzzzzzzzzzyyyyyyyz+++...............................................+++++++++++zzz++++..................................+++++++...........................................................................................................................................................................................................................................
(PID.TID 0001.0001) //    605 zzzzzzzzzzzzzyyyyyyz+++++..+++++......................................+++++++++zzz++++++..................................++++++++++........................................................................................................................................................................................................................................
(PID.TID 0001.0001) //    604 zzzzzzzzzzzzzzzyyyyy++++......+.......................................++++++++zz+++++++....................................++++++++++.......................................................................................................................................................................................................................................
(PID.TID 0001.0001) //    603 zzzzzzzzzzzzzzzzzyyzz++++..............................................++++++++++++++++...........................+++.......+++++++++.......................................................................................................................................................................................................................................
(PID.TID 0001.0001) //    602 zzzzzzzzzzzzzzzzzyyzz++.+.z..........................................+++..++++++++++++++++++..............++++++++++.........+++++++........................................................................................................................................................................................................................................
(PID.TID 0001.0001) //    601 zzzzzzzzzzzzzzzzzzyzzz++++.........................................+++.....+++zz+++++++++.+.......+.+++++++++++++++++++++.....++............................................................................................................................................................................................................................................
(PID.TID 0001.0001) //    600 zzzzzzzzzzzzzzzzzzyyyz+.+...................+................................+++zz++++++++++++++++++++++++++++++++++++....+.................................................................................................................................................................................................................................................
(PID.TID 0001.0001) //    599 zzzzzzzzzzzzzzzzzzyyyz++++..........................................++.++...++++++++++++++++++++++++++++++++++++++..........................................................................................................................................................................................................................................................
(PID.TID 0001.0001) //    598 zzzzzzzzzzzzzzzzzzyyyz++++.................++........................++++++..++++++++++zz++++++++++.........................................................................................................................................................................................................................................................................
(PID.TID 0001.0001) //    597 zzzzzzzzzzzzzzzzzzyyyzz+++................++++..........................+.+++++++zzzzzzzz+++++++............................................................................................................................................................................................................................................................................
(PID.TID 0001.0001) //    596 zzzzzzzzzzzzzzzzzzzyyzzz.++............+zzzzz++.........................+++++zzzzzzzzzz+++++.+++............................................................................................................................................................................................................................................................................
(PID.TID 0001.0001) //    595 zzzzzzzzzzzzzzzzzzzyyyyz+............+zzyyyzz++......................+++++zzzz++zz+zzzz+++++++++............................................................................................................................................................................................................................................................................
(PID.TID 0001.0001) //    594 zzzzzzzzz+++++zzzzzzzyyyyz+.........+zyxxxxyzz+++...................+++++zzzzz++zzzzzz++++...+++++.+........................................................................................................................................................................................................................................................................
(PID.TID 0001.0001) //    593 zzzzzzzzz+++++++++zzzzzzyyyz++..+++zyyxxyyzzzz++....................++++zzz+z+++zzzzz+++++++++++++++........................................................................................................................................................................................................................................................................
(PID.TID 0001.0001) //    592 zzzzzzzz++++++++++++++zzzzyyyyyyyyxyyyyzz+++z++++..................++++zzzz++++++zzzz++++++++++++++.........................................................................................................................................................................................................................................................................
(PID.TID 0001.0001) //    591 zzz++z++++++++++++++++++zzzzzzyyyyzzz++++++++++++...................++z+zz+..++++zzzz+++++..+++++++.........................................................................................................................................................................................................................................................................
(PID.TID 0001.0001) //    590 ++++++++++++++++++++++++++++z++++++++++++...+++++++................++++++++.+++z+zzz++++......+++++.........................................................................................................................................................................................................................................................................
(PID.TID 0001.0001) //    589 +++++++++++++++++++++++++++++++++++++.++...++++++++................+++++z+++++zzzzzz++++......+++++.........................................................................................................................................................................................................................................................................
(PID.TID 0001.0001) //    588 +++++++++++++++++++++++++++++++++++.+++....+++++++++...............++++z+++++zzzzzz++++.....................................................................................................................................................................................................................................................................................
(PID.TID 0001.0001) //    587 +++zzzz++++++++++++++++++++++++++++++......++++++++++.............+++++++++++zzzzzz+++......................................................................................................................................................................................................................................................................................
(PID.TID 0001.0001) //    586 +++++++++++++++++++++++++++++++++++..........++++++++.............++++++++++++zzz+++++......................................................................................................................................................................................................................................................................................
(PID.TID 0001.0001) //    585 +++++++++++++++++++++++++++++++++++.......++++++++++........++++++++++++++++z+z+++++++......................................................................................................................................................................................................................................................................................
(PID.TID 0001.0001) //    584 ++++++++++++++++++++++++++++++++++++.....+++++++++..+.....++++++++++++++++++zzz+++++++......................................................................................................................................................................................................................................................................................
(PID.TID 0001.0001) //    583 +++++++++++++++++++++++++++++++++++.....++++++...++++......++++++++++++++++z+++++++++++.....................................................................................................................................................................................................................................................................................
(PID.TID 0001.0001) //    582 +++++++++++++++++++++++++++++++++++++...+....++...+++++++++++++++++++++++++++++++++++++.....................................................................................................................................................................................................................................................................................
(PID.TID 0001.0001) //    581 +++++++++++++++++++++++++++++++++++++..++++.+++++.+++++++++++.+++++++++++++++++z+++++++.....................................................................................................................................................................................................................................................................................
(PID.TID 0001.0001) //    580 +++++++++++++++++++++++++++++++++++++..+++++++...+++++++++++++++++++++++++++++zz++...++.....................................................................................................................................................................................................................................................................................
(PID.TID 0001.0001) //    579 +++++++++++++++++++++++++++++++++++..+...+++++++++++++++++++++++++++++......++++++++........................................................................................................................................................................................................................................................................................
(PID.TID 0001.0001) //    578 +++++++++++++++++++++++++++++++++++++.....++++++++++.++.+++++++++++.........++++............................................................................................................................................................................................................................................................................................
(PID.TID 0001.0001) //    577 ++++++++++++++++++++++++++++++++++++++......+++++......+.+++++++............................................................................................................................................................................................................................................................................................................
(PID.TID 0001.0001) //    576 .+++++++++++++++++++++++++++++++++++++++.................++++...............................................................................................................................................................................................................................................................................................................
(PID.TID 0001.0001) //    575 .+++++++++++++++++++++++++++++....++...+....................................................................................................................................................................................................................................................................................................................................
(PID.TID 0001.0001) //    574 ...+++++++++++++++++++++++...++...++........................................................................................................................................................................................................................................................................................................................................
(PID.TID 0001.0001) //    573 ...+++++++++++++++++++++....................................................................................................................................................................................................................................................................................................................................................
(PID.TID 0001.0001) //    572 ..++...+++++++++++++++++++..................................................................................................................................................................................................................................................................................................................................................
(PID.TID 0001.0001) //    571 ........++++++++++++++++++..................................................................................................................................................................................................................................................................................................................................................
(PID.TID 0001.0001) //    570 ........++++++++++++++++....................................................................................................................................................................................................................................................................................................................................................
(PID.TID 0001.0001) //    569 .......+++++++++++++++......................................................................................................................................................................................................................................................................................................................................................
(PID.TID 0001.0001) //    568 .......+++++++++++++++......................................................................................................................................................................................................................................................................................................................................................
(PID.TID 0001.0001) //    567 .....+++++++++++++++........................................................................................................................................................................................................................................................................................................................................................
(PID.TID 0001.0001) //    566 ....++++++++++++++..........................................................................................................................................................................................................................................................................................................................................................
[...]
(PID.TID 0001.0001)  cg2d: iter=   869 ; resid.=  2.67217332239867E+06
(PID.TID 0001.0001)  cg2d: iter=   870 ; resid.=  2.66653831959904E+06
(PID.TID 0001.0001)  cg2d: iter=   871 ; resid.=  2.65830466918863E+06
(PID.TID 0001.0001)  cg2d: iter=   872 ; resid.=  2.66583016966430E+06
(PID.TID 0001.0001)  cg2d: iter=   873 ; resid.=  2.63879272213494E+06
(PID.TID 0001.0001)  cg2d: iter=   874 ; resid.=  2.61486421524477E+06
(PID.TID 0001.0001)  cg2d: iter=   875 ; resid.=  2.59508419276726E+06
(PID.TID 0001.0001)  cg2d: iter=   876 ; resid.=  2.59020475595988E+06
(PID.TID 0001.0001)  cg2d: iter=   877 ; resid.=  2.59752388881384E+06
(PID.TID 0001.0001)  cg2d: iter=   878 ; resid.=  2.61688335563182E+06
(PID.TID 0001.0001)  cg2d: iter=   879 ; resid.=  2.64189975725943E+06
(PID.TID 0001.0001)  cg2d: iter=   880 ; resid.=  2.62599992427263E+06
(PID.TID 0001.0001)  cg2d: iter=   881 ; resid.=  2.59325432456233E+06
(PID.TID 0001.0001)  cg2d: iter=   882 ; resid.=  2.57156519093954E+06
(PID.TID 0001.0001)  cg2d: iter=   883 ; resid.=  2.56013557588243E+06
(PID.TID 0001.0001)  cg2d: iter=   884 ; resid.=  2.55564202104168E+06
(PID.TID 0001.0001)  cg2d: iter=   885 ; resid.=  2.55463693723556E+06
(PID.TID 0001.0001)  cg2d: iter=   886 ; resid.=  2.51831389390535E+06
(PID.TID 0001.0001)  cg2d: iter=   887 ; resid.=  2.50519523968012E+06
(PID.TID 0001.0001)  cg2d: iter=   888 ; resid.=  2.49214588509787E+06
(PID.TID 0001.0001)  cg2d: iter=   889 ; resid.=  2.49940426360199E+06
(PID.TID 0001.0001)  cg2d: iter=   890 ; resid.=  2.48275351147212E+06
(PID.TID 0001.0001)  cg2d: iter=   891 ; resid.=  2.45220374286406E+06
(PID.TID 0001.0001)  cg2d: iter=   892 ; resid.=  2.40423384948701E+06
(PID.TID 0001.0001)  cg2d: iter=   893 ; resid.=  2.37296069085618E+06
(PID.TID 0001.0001)  cg2d: iter=   894 ; resid.=  2.34766889368837E+06
(PID.TID 0001.0001)  cg2d: iter=   895 ; resid.=  2.32194843292071E+06
(PID.TID 0001.0001)  cg2d: iter=   896 ; resid.=  2.29873277539589E+06
(PID.TID 0001.0001)  cg2d: iter=   897 ; resid.=  2.29010063989153E+06
(PID.TID 0001.0001)  cg2d: iter=   898 ; resid.=  2.27316575676588E+06
(PID.TID 0001.0001)  cg2d: iter=   899 ; resid.=  2.25946616359406E+06
(PID.TID 0001.0001)  cg2d: iter=   900 ; resid.=  2.26548260807955E+06
(PID.TID 0001.0001)  cg2d: iter=   901 ; resid.=  2.25850377217139E+06
(PID.TID 0001.0001)  cg2d: iter=   902 ; resid.=  2.24854451081959E+06
(PID.TID 0001.0001)  cg2d: iter=   903 ; resid.=  2.22563572280677E+06
(PID.TID 0001.0001)  cg2d: iter=   904 ; resid.=  2.19752734979786E+06
(PID.TID 0001.0001)  cg2d: iter=   905 ; resid.=  2.16094458984056E+06
(PID.TID 0001.0001)  cg2d: iter=   906 ; resid.=  2.13508968149549E+06
(PID.TID 0001.0001)  cg2d: iter=   907 ; resid.=  2.11340166870868E+06
(PID.TID 0001.0001)  cg2d: iter=   908 ; resid.=  2.09423084099272E+06
(PID.TID 0001.0001)  cg2d: iter=   909 ; resid.=  2.06905312145407E+06
(PID.TID 0001.0001)  cg2d: iter=   910 ; resid.=  2.04747953544458E+06
(PID.TID 0001.0001)  cg2d: iter=   911 ; resid.=  2.02100883150122E+06
(PID.TID 0001.0001)  cg2d: iter=   912 ; resid.=  2.01936786613648E+06
(PID.TID 0001.0001)  cg2d: iter=   913 ; resid.=  2.00547457413164E+06
(PID.TID 0001.0001)  cg2d: iter=   914 ; resid.=  1.97592055262279E+06
(PID.TID 0001.0001)  cg2d: iter=   915 ; resid.=  1.96137406882681E+06
(PID.TID 0001.0001)  cg2d: iter=   916 ; resid.=  1.94385039890955E+06
(PID.TID 0001.0001)  cg2d: iter=   917 ; resid.=  1.92160143921108E+06
(PID.TID 0001.0001)  cg2d: iter=   918 ; resid.=  1.91608078412504E+06
(PID.TID 0001.0001)  cg2d: iter=   919 ; resid.=  1.87844578688174E+06
(PID.TID 0001.0001)  cg2d: iter=   920 ; resid.=  1.84724588562204E+06
(PID.TID 0001.0001)  cg2d: iter=   921 ; resid.=  1.81658054970249E+06
(PID.TID 0001.0001)  cg2d: iter=   922 ; resid.=  1.80877423551718E+06
(PID.TID 0001.0001)  cg2d: iter=   923 ; resid.=  1.79399922527227E+06
(PID.TID 0001.0001)  cg2d: iter=   924 ; resid.=  1.78527799033031E+06
(PID.TID 0001.0001)  cg2d: iter=   925 ; resid.=  1.76679639223742E+06
(PID.TID 0001.0001)  cg2d: iter=   926 ; resid.=  1.77431897104751E+06
(PID.TID 0001.0001)  cg2d: iter=   927 ; resid.=  1.78291024774402E+06
(PID.TID 0001.0001)  cg2d: iter=   928 ; resid.=  1.77112794526532E+06
(PID.TID 0001.0001)  cg2d: iter=   929 ; resid.=  1.75754119208596E+06
(PID.TID 0001.0001)  cg2d: iter=   930 ; resid.=  1.72752776925075E+06
(PID.TID 0001.0001)  cg2d: iter=   931 ; resid.=  1.70492551062291E+06
(PID.TID 0001.0001)  cg2d: iter=   932 ; resid.=  1.67458356162833E+06
(PID.TID 0001.0001)  cg2d: iter=   933 ; resid.=  1.66582787383019E+06
(PID.TID 0001.0001)  cg2d: iter=   934 ; resid.=  1.65648965623605E+06
(PID.TID 0001.0001)  cg2d: iter=   935 ; resid.=  1.64002676824316E+06
(PID.TID 0001.0001)  cg2d: iter=   936 ; resid.=  1.60988510387989E+06
(PID.TID 0001.0001)  cg2d: iter=   937 ; resid.=  1.59111298556624E+06
(PID.TID 0001.0001)  cg2d: iter=   938 ; resid.=  1.57866060991348E+06
(PID.TID 0001.0001)  cg2d: iter=   939 ; resid.=  1.55305803310666E+06
(PID.TID 0001.0001)  cg2d: iter=   940 ; resid.=  1.51871348754126E+06
(PID.TID 0001.0001)  cg2d: iter=   941 ; resid.=  1.51077115623220E+06
(PID.TID 0001.0001)  cg2d: iter=   942 ; resid.=  1.48664765901264E+06
(PID.TID 0001.0001)  cg2d: iter=   943 ; resid.=  1.46317835190125E+06
(PID.TID 0001.0001)  cg2d: iter=   944 ; resid.=  1.43794311576790E+06
(PID.TID 0001.0001)  cg2d: iter=   945 ; resid.=  1.41960453048212E+06
(PID.TID 0001.0001)  cg2d: iter=   946 ; resid.=  1.41658927941796E+06
(PID.TID 0001.0001)  cg2d: iter=   947 ; resid.=  1.41205742540268E+06
(PID.TID 0001.0001)  cg2d: iter=   948 ; resid.=  1.38565355686891E+06
(PID.TID 0001.0001)  cg2d: iter=   949 ; resid.=  1.36384694952399E+06
(PID.TID 0001.0001)  cg2d: iter=   950 ; resid.=  1.33953822942524E+06
(PID.TID 0001.0001)  cg2d: iter=   951 ; resid.=  1.31342680634932E+06
(PID.TID 0001.0001)  cg2d: iter=   952 ; resid.=  1.30296080203856E+06
(PID.TID 0001.0001)  cg2d: iter=   953 ; resid.=  1.28382304840774E+06
(PID.TID 0001.0001)  cg2d: iter=   954 ; resid.=  1.28522494691180E+06
(PID.TID 0001.0001)  cg2d: iter=   955 ; resid.=  1.28049146031495E+06
(PID.TID 0001.0001)  cg2d: iter=   956 ; resid.=  1.26872676046325E+06
(PID.TID 0001.0001)  cg2d: iter=   957 ; resid.=  1.26419704336786E+06
(PID.TID 0001.0001)  cg2d: iter=   958 ; resid.=  1.27106185553148E+06
(PID.TID 0001.0001)  cg2d: iter=   959 ; resid.=  1.26887232841342E+06
(PID.TID 0001.0001)  cg2d: iter=   960 ; resid.=  1.26069062959018E+06
(PID.TID 0001.0001)  cg2d: iter=   961 ; resid.=  1.26696147179948E+06
(PID.TID 0001.0001)  cg2d: iter=   962 ; resid.=  1.25892634282041E+06
(PID.TID 0001.0001)  cg2d: iter=   963 ; resid.=  1.25438750297441E+06
(PID.TID 0001.0001)  cg2d: iter=   964 ; resid.=  1.24501611001497E+06
(PID.TID 0001.0001)  cg2d: iter=   965 ; resid.=  1.22282696325713E+06
(PID.TID 0001.0001)  cg2d: iter=   966 ; resid.=  1.21592542042871E+06
(PID.TID 0001.0001)  cg2d: iter=   967 ; resid.=  1.20742423102019E+06
(PID.TID 0001.0001)  cg2d: iter=   968 ; resid.=  1.20882396125606E+06
(PID.TID 0001.0001)  cg2d: iter=   969 ; resid.=  1.20613443953209E+06
(PID.TID 0001.0001)  cg2d: iter=   970 ; resid.=  1.19251697385275E+06
(PID.TID 0001.0001)  cg2d: iter=   971 ; resid.=  1.15773604262019E+06
(PID.TID 0001.0001)  cg2d: iter=   972 ; resid.=  1.14797647373702E+06
(PID.TID 0001.0001)  cg2d: iter=   973 ; resid.=  1.14545506145123E+06
(PID.TID 0001.0001)  cg2d: iter=   974 ; resid.=  1.13791735959969E+06
(PID.TID 0001.0001)  cg2d: iter=   975 ; resid.=  1.11503671943579E+06
(PID.TID 0001.0001)  cg2d: iter=   976 ; resid.=  1.08891755726374E+06
(PID.TID 0001.0001)  cg2d: iter=   977 ; resid.=  1.06784966449573E+06
(PID.TID 0001.0001)  cg2d: iter=   978 ; resid.=  1.04996200672717E+06
(PID.TID 0001.0001)  cg2d: iter=   979 ; resid.=  1.02902599448472E+06
(PID.TID 0001.0001)  cg2d: iter=   980 ; resid.=  1.01382847598587E+06
(PID.TID 0001.0001)  cg2d: iter=   981 ; resid.=  9.95947360325246E+05
(PID.TID 0001.0001)  cg2d: iter=   982 ; resid.=  9.80658535299439E+05
(PID.TID 0001.0001)  cg2d: iter=   983 ; resid.=  9.56958122183700E+05
(PID.TID 0001.0001)  cg2d: iter=   984 ; resid.=  9.47676033723337E+05
(PID.TID 0001.0001)  cg2d: iter=   985 ; resid.=  9.40536941317958E+05
(PID.TID 0001.0001)  cg2d: iter=   986 ; resid.=  9.43692815151474E+05
(PID.TID 0001.0001)  cg2d: iter=   987 ; resid.=  9.42707894868061E+05
(PID.TID 0001.0001)  cg2d: iter=   988 ; resid.=  9.41348870355143E+05
(PID.TID 0001.0001)  cg2d: iter=   989 ; resid.=  9.42312780557638E+05
(PID.TID 0001.0001)  cg2d: iter=   990 ; resid.=  9.38905895024618E+05
(PID.TID 0001.0001)  cg2d: iter=   991 ; resid.=  9.28366917430278E+05
(PID.TID 0001.0001)  cg2d: iter=   992 ; resid.=  9.14376984078587E+05
(PID.TID 0001.0001)  cg2d: iter=   993 ; resid.=  9.03992593763330E+05
(PID.TID 0001.0001)  cg2d: iter=   994 ; resid.=  8.94511166608843E+05
(PID.TID 0001.0001)  cg2d: iter=   995 ; resid.=  8.83154000868044E+05
(PID.TID 0001.0001)  cg2d: iter=   996 ; resid.=  8.63884688934809E+05
(PID.TID 0001.0001)  cg2d: iter=   997 ; resid.=  8.35044027214630E+05
(PID.TID 0001.0001)  cg2d: iter=   998 ; resid.=  8.17240348477801E+05
(PID.TID 0001.0001)  cg2d: iter=   999 ; resid.=  7.99452410695555E+05
(PID.TID 0001.0001)  cg2d: iter=  1000 ; resid.=  7.79140771184438E+05
(PID.TID 0001.0001) // =======================================================
(PID.TID 0001.0001) // Model current state
(PID.TID 0001.0001) // =======================================================
(PID.TID 0001.0001) 
(PID.TID 0001.0001) // =======================================================
(PID.TID 0001.0001) // Begin MONITOR dynamic field statistics
(PID.TID 0001.0001) // =======================================================
(PID.TID 0001.0001) %MON time_tsnumber                =                     0
(PID.TID 0001.0001) %MON time_secondsf                =   0.0000000000000E+00
(PID.TID 0001.0001) %MON dynstat_eta_max              =   0.0000000000000E+00
(PID.TID 0001.0001) %MON dynstat_eta_min              =   0.0000000000000E+00
(PID.TID 0001.0001) %MON dynstat_eta_mean             =   0.0000000000000E+00
(PID.TID 0001.0001) %MON dynstat_eta_sd               =   0.0000000000000E+00
(PID.TID 0001.0001) %MON dynstat_eta_del2             =   0.0000000000000E+00
(PID.TID 0001.0001) %MON dynstat_uvel_max             =   0.0000000000000E+00
(PID.TID 0001.0001) %MON dynstat_uvel_min             =   0.0000000000000E+00
(PID.TID 0001.0001) %MON dynstat_uvel_mean            =   0.0000000000000E+00
(PID.TID 0001.0001) %MON dynstat_uvel_sd              =   0.0000000000000E+00
(PID.TID 0001.0001) %MON dynstat_uvel_del2            =   0.0000000000000E+00
(PID.TID 0001.0001) %MON dynstat_vvel_max             =   0.0000000000000E+00
(PID.TID 0001.0001) %MON dynstat_vvel_min             =   0.0000000000000E+00
(PID.TID 0001.0001) %MON dynstat_vvel_mean            =   0.0000000000000E+00
(PID.TID 0001.0001) %MON dynstat_vvel_sd              =   0.0000000000000E+00
(PID.TID 0001.0001) %MON dynstat_vvel_del2            =   0.0000000000000E+00
(PID.TID 0001.0001) %MON dynstat_wvel_max             =  -0.0000000000000E+00
(PID.TID 0001.0001) %MON dynstat_wvel_min             =  -0.0000000000000E+00
(PID.TID 0001.0001) %MON dynstat_wvel_mean            =   0.0000000000000E+00
(PID.TID 0001.0001) %MON dynstat_wvel_sd              =   0.0000000000000E+00
(PID.TID 0001.0001) %MON dynstat_wvel_del2            =   0.0000000000000E+00
(PID.TID 0001.0001) %MON dynstat_theta_max            =   2.0000000000000E+01
(PID.TID 0001.0001) %MON dynstat_theta_min            =   2.0000000000000E+01
(PID.TID 0001.0001) %MON dynstat_theta_mean           =   2.0000000000000E+01
(PID.TID 0001.0001) %MON dynstat_theta_sd             =   8.1712414612411E-14
(PID.TID 0001.0001) %MON dynstat_theta_del2           =   0.0000000000000E+00
(PID.TID 0001.0001) %MON dynstat_salt_max             =   3.0000000000000E+01
(PID.TID 0001.0001) %MON dynstat_salt_min             =   3.0000000000000E+01
(PID.TID 0001.0001) %MON dynstat_salt_mean            =   3.0000000000000E+01
(PID.TID 0001.0001) %MON dynstat_salt_sd              =   2.0605739337043E-13
(PID.TID 0001.0001) %MON dynstat_salt_del2            =   0.0000000000000E+00
(PID.TID 0001.0001) %MON dynstat_sst_max              =   2.0000000000000E+01
(PID.TID 0001.0001) %MON dynstat_sst_min              =   2.0000000000000E+01
(PID.TID 0001.0001) %MON dynstat_sst_mean             =   1.9999999999998E+01
(PID.TID 0001.0001) %MON dynstat_sst_sd               =   2.4584778657296E-12
(PID.TID 0001.0001) %MON dynstat_sst_del2             =   0.0000000000000E+00
(PID.TID 0001.0001) %MON dynstat_sss_max              =   3.0000000000000E+01
(PID.TID 0001.0001) %MON dynstat_sss_min              =   3.0000000000000E+01
(PID.TID 0001.0001) %MON dynstat_sss_mean             =   2.9999999999996E+01
(PID.TID 0001.0001) %MON dynstat_sss_sd               =   4.4231285301062E-12
(PID.TID 0001.0001) %MON dynstat_sss_del2             =   0.0000000000000E+00
(PID.TID 0001.0001) %MON forcing_qnet_max             =   0.0000000000000E+00
(PID.TID 0001.0001) %MON forcing_qnet_min             =   0.0000000000000E+00
(PID.TID 0001.0001) %MON forcing_qnet_mean            =   0.0000000000000E+00
(PID.TID 0001.0001) %MON forcing_qnet_sd              =   0.0000000000000E+00
(PID.TID 0001.0001) %MON forcing_qnet_del2            =   0.0000000000000E+00
(PID.TID 0001.0001) %MON forcing_qsw_max              =   0.0000000000000E+00
(PID.TID 0001.0001) %MON forcing_qsw_min              =   0.0000000000000E+00
(PID.TID 0001.0001) %MON forcing_qsw_mean             =   0.0000000000000E+00
(PID.TID 0001.0001) %MON forcing_qsw_sd               =   0.0000000000000E+00
(PID.TID 0001.0001) %MON forcing_qsw_del2             =   0.0000000000000E+00
(PID.TID 0001.0001) %MON forcing_empmr_max            =   0.0000000000000E+00
(PID.TID 0001.0001) %MON forcing_empmr_min            =   0.0000000000000E+00
(PID.TID 0001.0001) %MON forcing_empmr_mean           =   0.0000000000000E+00
(PID.TID 0001.0001) %MON forcing_empmr_sd             =   0.0000000000000E+00
(PID.TID 0001.0001) %MON forcing_empmr_del2           =   0.0000000000000E+00
(PID.TID 0001.0001) %MON forcing_fu_max               =   0.0000000000000E+00
(PID.TID 0001.0001) %MON forcing_fu_min               =   0.0000000000000E+00
(PID.TID 0001.0001) %MON forcing_fu_mean              =   0.0000000000000E+00
(PID.TID 0001.0001) %MON forcing_fu_sd                =   0.0000000000000E+00
(PID.TID 0001.0001) %MON forcing_fu_del2              =   0.0000000000000E+00
(PID.TID 0001.0001) %MON forcing_fv_max               =   0.0000000000000E+00
(PID.TID 0001.0001) %MON forcing_fv_min               =   0.0000000000000E+00
(PID.TID 0001.0001) %MON forcing_fv_mean              =   0.0000000000000E+00
(PID.TID 0001.0001) %MON forcing_fv_sd                =   0.0000000000000E+00
(PID.TID 0001.0001) %MON forcing_fv_del2              =   0.0000000000000E+00
(PID.TID 0001.0001) %MON trAdv_CFL_u_max              =   0.0000000000000E+00
(PID.TID 0001.0001) %MON trAdv_CFL_v_max              =   0.0000000000000E+00
(PID.TID 0001.0001) %MON trAdv_CFL_w_max              =   0.0000000000000E+00
(PID.TID 0001.0001) %MON advcfl_uvel_max              =   0.0000000000000E+00
(PID.TID 0001.0001) %MON advcfl_vvel_max              =   0.0000000000000E+00
(PID.TID 0001.0001) %MON advcfl_wvel_max              =   0.0000000000000E+00
(PID.TID 0001.0001) %MON advcfl_W_hf_max              =   0.0000000000000E+00
(PID.TID 0001.0001) %MON pe_b_mean                    =   0.0000000000000E+00
(PID.TID 0001.0001) %MON ke_max                       =   0.0000000000000E+00
(PID.TID 0001.0001) %MON ke_mean                      =   0.0000000000000E+00
(PID.TID 0001.0001) %MON ke_vol                       =   1.3390214028633E+18
(PID.TID 0001.0001) %MON vort_r_min                   =   0.0000000000000E+00
(PID.TID 0001.0001) %MON vort_r_max                   =   0.0000000000000E+00
(PID.TID 0001.0001) %MON vort_a_mean                  =  -1.3013328496589E-05
(PID.TID 0001.0001) %MON vort_a_sd                    =   8.0374144259079E-05
(PID.TID 0001.0001) %MON vort_p_mean                  =  -4.0285224932342E-05
(PID.TID 0001.0001) %MON vort_p_sd                    =   2.8329417776011E-03
(PID.TID 0001.0001) %MON surfExpan_theta_mean         =   0.0000000000000E+00
(PID.TID 0001.0001) %MON surfExpan_salt_mean          =   0.0000000000000E+00
(PID.TID 0001.0001) // =======================================================
(PID.TID 0001.0001) // End MONITOR dynamic field statistics
(PID.TID 0001.0001) // =======================================================
(PID.TID 0001.0001)   Seconds in section "ALL                    [THE_MODEL_MAIN]":
(PID.TID 0001.0001)           User time:   3.1803379245102406
(PID.TID 0001.0001)         System time:   8.8211996480822563E-002
(PID.TID 0001.0001)     Wall clock time:   4.2905189990997314
(PID.TID 0001.0001)          No. starts:           1
(PID.TID 0001.0001)           No. stops:           1
(PID.TID 0001.0001)   Seconds in section "INITIALISE_FIXED       [THE_MODEL_MAIN]":
(PID.TID 0001.0001)           User time:   7.0954000577330589E-002
(PID.TID 0001.0001)         System time:   2.0620000548660755E-002
(PID.TID 0001.0001)     Wall clock time:  0.19940495491027832
(PID.TID 0001.0001)          No. starts:           1
(PID.TID 0001.0001)           No. stops:           1
(PID.TID 0001.0001)   Seconds in section "THE_MAIN_LOOP          [THE_MODEL_MAIN]":
(PID.TID 0001.0001)           User time:   3.1093740612268448
(PID.TID 0001.0001)         System time:   6.7585997283458710E-002
(PID.TID 0001.0001)     Wall clock time:   4.0910990238189697
(PID.TID 0001.0001)          No. starts:           1
(PID.TID 0001.0001)           No. stops:           1
(PID.TID 0001.0001)   Seconds in section "INITIALISE_VARIA    [THE_MAIN_LOOP]":
(PID.TID 0001.0001)           User time:   3.1093610525131226
(PID.TID 0001.0001)         System time:   6.7578999325633049E-002
(PID.TID 0001.0001)     Wall clock time:   4.0910809040069580
(PID.TID 0001.0001)          No. starts:           1
(PID.TID 0001.0001)           No. stops:           1
(PID.TID 0001.0001)   Seconds in section "MAIN LOOP           [THE_MAIN_LOOP]":
(PID.TID 0001.0001)           User time:   2.8610229492187500E-006
(PID.TID 0001.0001)         System time:   0.0000000000000000
(PID.TID 0001.0001)     Wall clock time:   2.8610229492187500E-006
(PID.TID 0001.0001)          No. starts:           1
(PID.TID 0001.0001)           No. stops:           1
(PID.TID 0001.0001) // ======================================================
(PID.TID 0001.0001) // Tile <-> Tile communication statistics
(PID.TID 0001.0001) // ======================================================
(PID.TID 0001.0001) // o Tile number: 000005
(PID.TID 0001.0001) //         No. X exchanges =              0
(PID.TID 0001.0001) //            Max. X spins =              0
(PID.TID 0001.0001) //            Min. X spins =     1000000000
(PID.TID 0001.0001) //          Total. X spins =              0
(PID.TID 0001.0001) //            Avg. X spins =       0.00E+00
(PID.TID 0001.0001) //         No. Y exchanges =              0
(PID.TID 0001.0001) //            Max. Y spins =              0
(PID.TID 0001.0001) //            Min. Y spins =     1000000000
(PID.TID 0001.0001) //          Total. Y spins =              0
(PID.TID 0001.0001) //            Avg. Y spins =       0.00E+00
(PID.TID 0001.0001) // o Thread number: 000001
(PID.TID 0001.0001) //            No. barriers =           6562
(PID.TID 0001.0001) //      Max. barrier spins =              1
(PID.TID 0001.0001) //      Min. barrier spins =              1
(PID.TID 0001.0001) //     Total barrier spins =           6562
(PID.TID 0001.0001) //      Avg. barrier spins =       1.00E+00
PROGRAM MAIN: Execution ended Normally
