(PID.TID 0006.0001) 
(PID.TID 0006.0001) // ======================================================
(PID.TID 0006.0001) //                      MITgcm UV
(PID.TID 0006.0001) //                      =========
(PID.TID 0006.0001) // ======================================================
(PID.TID 0006.0001) // execution environment starting up...
(PID.TID 0006.0001) 
(PID.TID 0006.0001) // MITgcmUV version:  checkpoint69i
(PID.TID 0006.0001) // Build user:        hodahashemi
(PID.TID 0006.0001) // Build host:        Hodas-MacBook-Pro.local
(PID.TID 0006.0001) // Build date:        Sat Feb 21 03:49:53 EET 2026
(PID.TID 0006.0001) 
(PID.TID 0006.0001) // =======================================================
(PID.TID 0006.0001) // Execution Environment parameter file "eedata"
(PID.TID 0006.0001) // =======================================================
(PID.TID 0006.0001) > &EEPARMS
(PID.TID 0006.0001) >  nTx=1,
(PID.TID 0006.0001) >  nTy=1,
(PID.TID 0006.0001) > /
(PID.TID 0006.0001) >
(PID.TID 0006.0001) 
(PID.TID 0006.0001) // =======================================================
(PID.TID 0006.0001) // Computational Grid Specification ( see files "SIZE.h" )
(PID.TID 0006.0001) //                                  ( and "eedata"       )
(PID.TID 0006.0001) // =======================================================
(PID.TID 0006.0001)      nPx =    4 ; /* No. processes in X */
(PID.TID 0006.0001)      nPy =    2 ; /* No. processes in Y */
(PID.TID 0006.0001)      nSx =    1 ; /* No. tiles in X per process */
(PID.TID 0006.0001)      nSy =    1 ; /* No. tiles in Y per process */
(PID.TID 0006.0001)      sNx =  360 ; /* Tile size in X */
(PID.TID 0006.0001)      sNy =  360 ; /* Tile size in Y */
(PID.TID 0006.0001)      OLx =    2 ; /* Tile overlap distance in X */
(PID.TID 0006.0001)      OLy =    2 ; /* Tile overlap distance in Y */
(PID.TID 0006.0001)      nTx =    1 ; /* No. threads in X per process */
(PID.TID 0006.0001)      nTy =    1 ; /* No. threads in Y per process */
(PID.TID 0006.0001)       Nr =    1 ; /* No. levels in the vertical   */
(PID.TID 0006.0001)       Nx = 1440 ; /* Total domain size in X ( = nPx*nSx*sNx ) */
(PID.TID 0006.0001)       Ny =  720 ; /* Total domain size in Y ( = nPy*nSy*sNy ) */
(PID.TID 0006.0001)   nTiles =    1 ; /* Total no. tiles per process ( = nSx*nSy ) */
(PID.TID 0006.0001)   nProcs =    8 ; /* Total no. processes ( = nPx*nPy ) */
(PID.TID 0006.0001) nThreads =    1 ; /* Total no. threads per process ( = nTx*nTy ) */
(PID.TID 0006.0001) usingMPI =    T ; /* Flag used to control whether MPI is in use */
(PID.TID 0006.0001)                   /*  note: To execute a program with MPI calls */
(PID.TID 0006.0001)                   /*  it must be launched appropriately e.g     */
(PID.TID 0006.0001)                   /*  "mpirun -np 64 ......"                    */
(PID.TID 0006.0001) useCoupler=   F ; /* Flag used to control communications with   */
(PID.TID 0006.0001)                   /*  other model components, through a coupler */
(PID.TID 0006.0001) useNest2W_parent =    F ;/* Control 2-W Nesting comm */
(PID.TID 0006.0001) useNest2W_child  =    F ;/* Control 2-W Nesting comm */
(PID.TID 0006.0001) debugMode =    F ; /* print debug msg. (sequence of S/R calls)  */
(PID.TID 0006.0001) printMapIncludesZeros=    F ; /* print zeros in Std.Output maps */
(PID.TID 0006.0001) maxLengthPrt1D=   65 /* maxLength of 1D array printed to StdOut */
(PID.TID 0006.0001) 
(PID.TID 0006.0001) ======= Starting MPI parallel Run =========
(PID.TID 0006.0001)  My Processor Name (len: 23 ) = Hodas-MacBook-Pro.local
(PID.TID 0006.0001)  Located at (  3,  0) on processor grid (0:  3,0:  1)
(PID.TID 0006.0001)  Origin at  (  1081,     1) on global grid (1:  1440,1:   720)
(PID.TID 0006.0001)  North neighbor = processor 0007
(PID.TID 0006.0001)  South neighbor = processor 0007
(PID.TID 0006.0001)   East neighbor = processor 0000
(PID.TID 0006.0001)   West neighbor = processor 0004
(PID.TID 0006.0001) // ======================================================
(PID.TID 0006.0001) // Mapping of tiles to threads
(PID.TID 0006.0001) // ======================================================
(PID.TID 0006.0001) // -o- Thread   1, tiles (   1:   1,   1:   1)
(PID.TID 0006.0001) 
(PID.TID 0006.0001) // ======================================================
(PID.TID 0006.0001) // Tile <-> Tile connectvity table
(PID.TID 0006.0001) // ======================================================
(PID.TID 0006.0001) // Tile number: 000004 (process no. = 000006)
(PID.TID 0006.0001) //        WEST: Tile = 000003, Process = 000004, Comm = messages
(PID.TID 0006.0001) //                bi = 000001, bj = 000001
(PID.TID 0006.0001) //        EAST: Tile = 000001, Process = 000000, Comm = messages
(PID.TID 0006.0001) //                bi = 000001, bj = 000001
(PID.TID 0006.0001) //       SOUTH: Tile = 000008, Process = 000007, Comm = messages
(PID.TID 0006.0001) //                bi = 000001, bj = 000001
(PID.TID 0006.0001) //       NORTH: Tile = 000008, Process = 000007, Comm = messages
(PID.TID 0006.0001) //                bi = 000001, bj = 000001
(PID.TID 0006.0001) 
(PID.TID 0006.0001)  INI_PARMS: opening model parameter file "data"
(PID.TID 0006.0001)  OPEN_COPY_DATA_FILE: opening file data
(PID.TID 0006.0001) // =======================================================
(PID.TID 0006.0001) // Parameter file "data"
(PID.TID 0006.0001) // =======================================================
(PID.TID 0006.0001) >&PARM01
(PID.TID 0006.0001) >#rotationPeriod is set ini_parms: 86164 \approx 7.292123516990375e-5 ; our fortan is c/86400
(PID.TID 0006.0001) ># 7.27220521664304e-5 , 6.283185307179586
(PID.TID 0006.0001) >omega = 7.292E-5,
(PID.TID 0006.0001) ># MAYBE WE NEED TO ADD 1E2 FOR STABILITY IDK
(PID.TID 0006.0001) >viscAh  = 0.,
(PID.TID 0006.0001) >viscA4  = 0.,
(PID.TID 0006.0001) >diffKhT = 0.,
(PID.TID 0006.0001) >no_slip_sides = .FALSE.,
(PID.TID 0006.0001) >no_slip_bottom = .FALSE.,
(PID.TID 0006.0001) >exactConserv=.TRUE.,
(PID.TID 0006.0001) >momStepping=.FALSE.,
(PID.TID 0006.0001) >tempStepping=.FALSE.,
(PID.TID 0006.0001) >saltStepping=.FALSE.,
(PID.TID 0006.0001) >hFacMin=0.00001,
(PID.TID 0006.0001) >hFacMinDr=0.5,
(PID.TID 0006.0001) >/
(PID.TID 0006.0001) >
(PID.TID 0006.0001) >&PARM02
(PID.TID 0006.0001) >cg2dMaxIters = 1000,
(PID.TID 0006.0001) >cg2dTargetResidual = 1.E-8,
(PID.TID 0006.0001) >cg2dPreCondFreq = 1,
(PID.TID 0006.0001) >printResidualFreq= 1 ,
(PID.TID 0006.0001) >/
(PID.TID 0006.0001) >
(PID.TID 0006.0001) >&PARM03
(PID.TID 0006.0001) >nIter0   = 0,
(PID.TID 0006.0001) >nTimeSteps = 0,
(PID.TID 0006.0001) >deltaT   = 3600.,
(PID.TID 0006.0001) >monitorFreq=10,
(PID.TID 0006.0001) >/
(PID.TID 0006.0001) >
(PID.TID 0006.0001) >&PARM04
(PID.TID 0006.0001) >usingSphericalPolarGrid = .TRUE.,
(PID.TID 0006.0001) >delX = 1440*0.25,
(PID.TID 0006.0001) >delY = 720*0.25,
(PID.TID 0006.0001) >xgOrigin = 0.,
(PID.TID 0006.0001) >ygOrigin = -90.,
(PID.TID 0006.0001) >rSphere = 6371000.,
(PID.TID 0006.0001) >#clipping elevation of water
(PID.TID 0006.0001) >delR =  11000.0,
(PID.TID 0006.0001) ># 11000.0 ,
(PID.TID 0006.0001) >
(PID.TID 0006.0001) >/
(PID.TID 0006.0001) >
(PID.TID 0006.0001) ># Input datasets
(PID.TID 0006.0001) >&PARM05
(PID.TID 0006.0001) >bathyFile='bathymetry.bin',
(PID.TID 0006.0001) ># bathyFile='',
(PID.TID 0006.0001) >#  zonalWindFile='wind.bin',# Forcing to drive the "steady" circulation
(PID.TID 0006.0001) >
(PID.TID 0006.0001) >/
(PID.TID 0006.0001) >
(PID.TID 0006.0001) 
(PID.TID 0006.0001)  INI_PARMS ; starts to read PARM01
(PID.TID 0006.0001)  INI_PARMS ; read PARM01 : OK
(PID.TID 0006.0001) S/R INI_PARMS: No request for barotropic solver
(PID.TID 0006.0001) S/R INI_PARMS: => Use implicitFreeSurface as default
(PID.TID 0006.0001)  INI_PARMS ; starts to read PARM02
(PID.TID 0006.0001)  INI_PARMS ; read PARM02 : OK
(PID.TID 0006.0001)  INI_PARMS ; starts to read PARM03
(PID.TID 0006.0001)  INI_PARMS ; read PARM03 : OK
(PID.TID 0006.0001)  INI_PARMS ; starts to read PARM04
(PID.TID 0006.0001)  INI_PARMS ; read PARM04 : OK
(PID.TID 0006.0001)  INI_PARMS ; starts to read PARM05
(PID.TID 0006.0001)  INI_PARMS ; read PARM05 : OK
(PID.TID 0006.0001)  INI_PARMS: finished reading file "data"
(PID.TID 0006.0001)  PACKAGES_BOOT: opening data.pkg
(PID.TID 0006.0001)  OPEN_COPY_DATA_FILE: opening file data.pkg
(PID.TID 0006.0001) // =======================================================
(PID.TID 0006.0001) // Parameter file "data.pkg"
(PID.TID 0006.0001) // =======================================================
(PID.TID 0006.0001) > &PACKAGES
(PID.TID 0006.0001) >  useMyPackage = .TRUE.,
(PID.TID 0006.0001) > /
(PID.TID 0006.0001) 
(PID.TID 0006.0001)  PACKAGES_BOOT: finished reading data.pkg
(PID.TID 0006.0001)  PACKAGES_BOOT: On/Off package Summary
 --------  pkgs with a standard "usePKG" On/Off switch in "data.pkg":  --------
 pkg/mypackage            compiled   and   used ( useMYPACKAGE             = T )
 -------- pkgs without standard "usePKG" On/Off switch in "data.pkg":  --------
 pkg/generic_advdiff      compiled but not used ( useGAD                   = F )
 pkg/mom_common           compiled but not used ( momStepping              = F )
 pkg/mom_vecinv           compiled but not used ( +vectorInvariantMomentum = F )
 pkg/mom_fluxform         compiled but not used ( & not vectorInvariantMom = F )
 pkg/monitor              compiled   and   used ( monitorFreq > 0.         = T )
 pkg/debug                compiled but not used ( debugMode                = F )
 pkg/rw                   compiled   and   used
 pkg/mdsio                compiled   and   used
(PID.TID 0006.0001)  PACKAGES_BOOT: End of package Summary
(PID.TID 0006.0001) 
(PID.TID 0006.0001) MYPACKAGE_READPARMS: opening data.mypackage
(PID.TID 0006.0001)  OPEN_COPY_DATA_FILE: opening file data.mypackage
(PID.TID 0006.0001) // =======================================================
(PID.TID 0006.0001) // Parameter file "data.mypackage"
(PID.TID 0006.0001) // =======================================================
(PID.TID 0006.0001) >&MYPACKAGE_PARM01
(PID.TID 0006.0001) >/
(PID.TID 0006.0001) 
(PID.TID 0006.0001) MYPACKAGE_READPARMS: finished reading data.mypackage
(PID.TID 0006.0001) SET_PARMS: done
(PID.TID 0006.0001) Enter INI_VERTICAL_GRID: setInterFDr=    T ; setCenterDr=    F
(PID.TID 0006.0001) %MON XC_max                       =   3.5987500000000E+02
(PID.TID 0006.0001) %MON XC_min                       =   1.2500000000000E-01
(PID.TID 0006.0001) %MON XC_mean                      =   1.8000000000000E+02
(PID.TID 0006.0001) %MON XC_sd                        =   1.0392302339552E+02
(PID.TID 0006.0001) %MON XG_max                       =   3.5975000000000E+02
(PID.TID 0006.0001) %MON XG_min                       =   0.0000000000000E+00
(PID.TID 0006.0001) %MON XG_mean                      =   1.7987500000000E+02
(PID.TID 0006.0001) %MON XG_sd                        =   1.0392302339552E+02
(PID.TID 0006.0001) %MON DXC_max                      =   2.7798665505088E+04
(PID.TID 0006.0001) %MON DXC_min                      =   6.0647376310612E+01
(PID.TID 0006.0001) %MON DXC_mean                     =   1.7697236260984E+04
(PID.TID 0006.0001) %MON DXC_sd                       =   8.5552656128781E+03
(PID.TID 0006.0001) %MON DXF_max                      =   2.7798665505088E+04
(PID.TID 0006.0001) %MON DXF_min                      =   6.0647376310612E+01
(PID.TID 0006.0001) %MON DXF_mean                     =   1.7697236260984E+04
(PID.TID 0006.0001) %MON DXF_sd                       =   8.5552656128781E+03
(PID.TID 0006.0001) %MON DXG_max                      =   2.7798731661140E+04
(PID.TID 0006.0001) %MON DXG_min                      =   0.0000000000000E+00
(PID.TID 0006.0001) %MON DXG_mean                     =   1.7697194144702E+04
(PID.TID 0006.0001) %MON DXG_sd                       =   8.5553527331570E+03
(PID.TID 0006.0001) %MON DXV_max                      =   2.7798731661140E+04
(PID.TID 0006.0001) %MON DXV_min                      =   0.0000000000000E+00
(PID.TID 0006.0001) %MON DXV_mean                     =   1.7697194144702E+04
(PID.TID 0006.0001) %MON DXV_sd                       =   8.5553527331570E+03
(PID.TID 0006.0001) %MON YC_max                       =   8.9875000000000E+01
(PID.TID 0006.0001) %MON YC_min                       =  -8.9875000000000E+01
(PID.TID 0006.0001) %MON YC_mean                      =   0.0000000000000E+00
(PID.TID 0006.0001) %MON YC_sd                        =   5.1961474109831E+01
(PID.TID 0006.0001) %MON YG_max                       =   8.9750000000000E+01
(PID.TID 0006.0001) %MON YG_min                       =  -9.0000000000000E+01
(PID.TID 0006.0001) %MON YG_mean                      =  -1.2500000000000E-01
(PID.TID 0006.0001) %MON YG_sd                        =   5.1961474109831E+01
(PID.TID 0006.0001) %MON DYC_max                      =   2.7798731661140E+04
(PID.TID 0006.0001) %MON DYC_min                      =   2.7798731661140E+04
(PID.TID 0006.0001) %MON DYC_mean                     =   2.7798731661186E+04
(PID.TID 0006.0001) %MON DYC_sd                       =   4.6802597353235E-08
(PID.TID 0006.0001) %MON DYF_max                      =   2.7798731661140E+04
(PID.TID 0006.0001) %MON DYF_min                      =   2.7798731661140E+04
(PID.TID 0006.0001) %MON DYF_mean                     =   2.7798731661186E+04
(PID.TID 0006.0001) %MON DYF_sd                       =   4.6802597353235E-08
(PID.TID 0006.0001) %MON DYG_max                      =   2.7798731661140E+04
(PID.TID 0006.0001) %MON DYG_min                      =   2.7798731661140E+04
(PID.TID 0006.0001) %MON DYG_mean                     =   2.7798731661186E+04
(PID.TID 0006.0001) %MON DYG_sd                       =   4.6802597353235E-08
(PID.TID 0006.0001) %MON DYU_max                      =   2.7798731661140E+04
(PID.TID 0006.0001) %MON DYU_min                      =   2.7798731661140E+04
(PID.TID 0006.0001) %MON DYU_mean                     =   2.7798731661186E+04
(PID.TID 0006.0001) %MON DYU_sd                       =   4.6802597353235E-08
(PID.TID 0006.0001) %MON RA_max                       =   7.7276702989699E+08
(PID.TID 0006.0001) %MON RA_min                       =   1.6859188026131E+06
(PID.TID 0006.0001) %MON RA_mean                      =   4.9196033170312E+08
(PID.TID 0006.0001) %MON RA_sd                        =   2.3782534440125E+08
(PID.TID 0006.0001) %MON RAW_max                      =   7.7276702989699E+08
(PID.TID 0006.0001) %MON RAW_min                      =   1.6859188026131E+06
(PID.TID 0006.0001) %MON RAW_mean                     =   4.9196033170312E+08
(PID.TID 0006.0001) %MON RAW_sd                       =   2.3782534440125E+08
(PID.TID 0006.0001) %MON RAS_max                      =   7.7276886894985E+08
(PID.TID 0006.0001) %MON RAS_min                      =   0.0000000000000E+00
(PID.TID 0006.0001) %MON RAS_mean                     =   4.9195916092479E+08
(PID.TID 0006.0001) %MON RAS_sd                       =   2.3782776623264E+08
(PID.TID 0006.0001) %MON RAZ_max                      =   7.7276886894985E+08
(PID.TID 0006.0001) %MON RAZ_min                      =   0.0000000000000E+00
(PID.TID 0006.0001) %MON RAZ_mean                     =   4.9195916092479E+08
(PID.TID 0006.0001) %MON RAZ_sd                       =   2.3782776623264E+08
(PID.TID 0006.0001) %MON AngleCS_max                  =   1.0000000000000E+00
(PID.TID 0006.0001) %MON AngleCS_min                  =   1.0000000000000E+00
(PID.TID 0006.0001) %MON AngleCS_mean                 =   1.0000000000000E+00
(PID.TID 0006.0001) %MON AngleCS_sd                   =   0.0000000000000E+00
(PID.TID 0006.0001) %MON AngleSN_max                  =   0.0000000000000E+00
(PID.TID 0006.0001) %MON AngleSN_min                  =   0.0000000000000E+00
(PID.TID 0006.0001) %MON AngleSN_mean                 =   0.0000000000000E+00
(PID.TID 0006.0001) %MON AngleSN_sd                   =   0.0000000000000E+00
(PID.TID 0006.0001)  MDS_READ_FIELD: opening global file: bathymetry.bin
(PID.TID 0006.0001) // =======================================================
(PID.TID 0006.0001) // Field Model R_low (ini_masks_etc)
(PID.TID 0006.0001) // CMIN =         -8.131254882812499E+03
(PID.TID 0006.0001) // CMAX =         -4.999999999999999E-01
(PID.TID 0006.0001) // CINT =          3.011390697337962E+02
(PID.TID 0006.0001) // SYMBOLS (CMIN->CMAX): -abcdefghijklmnopqrstuvwxyz+
(PID.TID 0006.0001) //                  0.0: .
(PID.TID 0006.0001) // RANGE I (Lo:Hi:Step):(  1079:  1442:     1)
(PID.TID 0006.0001) // RANGE J (Lo:Hi:Step):(   362:    -1:    -1)
(PID.TID 0006.0001) // RANGE K (Lo:Hi:Step):(   1:   1:   1)
(PID.TID 0006.0001) // =======================================================
(PID.TID 0006.0001) K =   1
(PID.TID 0006.0001) //                I=1088    I=1098    I=1108    I=1118    I=1128    I=1138    I=1148    I=1158    I=1168    I=1178    I=1188    I=1198    I=1208    I=1218    I=1228    I=1238    I=1248    I=1258    I=1268    I=1278    I=1288    I=1298    I=1308    I=1318    I=1328    I=1338    I=1348    I=1358    I=1368    I=1378    I=1388    I=1398    I=1408    I=1418    I=1428    I=1438
(PID.TID 0006.0001) // |--J--|901234567|901234567|901234567|901234567|901234567|901234567|901234567|901234567|901234567|901234567|901234567|901234567|901234567|901234567|901234567|901234567|901234567|901234567|901234567|901234567|901234567|901234567|901234567|901234567|901234567|901234567|901234567|901234567|901234567|901234567|901234567|901234567|901234567|901234567|901234567|901234567|9012
(PID.TID 0006.0001) //    362 xwxtttsssrsrrrrrrrrqqqqpppqpqqqqrqqstspuz+.....................................................................................................................++++++++++++++++++++++zywsqooonnnnnnnnonmmpmmmmmlmmmmmlllllllllmmmmmmmmmmmmllmnnnnnnnoopoopooonnnnnnnopqsrooooooonnnnmllkjkjjjjkkmopqqstononnnnnnnmmnmmmllllllllllllllmkjkjjjjjjjjjjjjjjjjjjjjjjjjjjjjjjjkkkk
(PID.TID 0006.0001) //    361 wxuttttsssrrrrrrrqrqqqppppqqqqrstutvvsryz+...................................................................................................................++++.++++++++++++++++++++++zwppooonnnonpqpprnnmmmmlmmmmmllllllllllmmmmmmmmmmllllllmnnnnnnnnnnnnnoppopoopqoppoooooooonmlllllllnppmnnnooomnnnpqonnnnnnnnnmmmlllllllllllllkkkkkkjjjjjkkjjjjjjjjjjjjjjjjjjjjjjkkkkk
(PID.TID 0006.0001) //    360 vxwvwutttssrrrrrqqrqqqqqqqqqrstuvvwwuqwz+...................................................................................................................+++++++++++++++++++++++++++++yqppppoonnnonoonnnmnmmlllmllllllllllllmmmmmmmmmmlllllnmnnnnnnnnnnnnnoooopoooppppooonnnmmllmnppoonnnmmnkhhjimopprppppnnnnnnnnmmmllllllllkkkkklkkkkkjjjjkkjjjjjjjjjjjjjjjjjjjjjkkkkkk
(PID.TID 0006.0001) //    359 zxxwwvuutttsrrrrrrqqrssrqqrrsuuvvwxwtsy+...................................................................................................................++++.........+++++++++++++++++zurqppprpoonnnonnnnpnmllllllllllllllllmmmmmmmmmmllllmmlmmnnnnnnnnnnnooooooopppqqpoonmlllnnnooopnmlkjkikmnmpppppqnqqqnnnnnnnnnnnmlmllmnnmlllkklllkjkjkjkjjjjjjjjjjjjjjjjjjjjjkkkkkkl
(PID.TID 0006.0001) //    358 +zzyyxwvuuvutstsssrrssssssssuvvvvwwusuz+...................................................................................................................+++++.......+++++++++++++++++++ytrqpqrtpooononnnnqsmllllllllllllllllmmmmmmmmmmllmllllmmnnnnnnnnnnnnooooooooprqqonononoonnnmlkhilmmmnnnnnnnnoppnqronnnnnnnnnnnnmnnnnnnlllllllllklkkkjkjjjjjjjjjjjjjjjjjjjjkkkkkkll
(PID.TID 0006.0001) //    357 ++z+zyxwwvvvutttttsssttttuuuvvvvvvvurw++..................................................................................................................+++++........++....++++++++++++++wtrqqqqppooooonnoppmmmmlllllllllllllmmmmmmmlllllmlllllnnnnnnnnnnnnnopooooopsrqrponnnnmlkkklmnnlllllllnnnnooopqqqqonnnnnnnnnonoooonnnnmmlmmlllllllkjjjjjjjjjjjjjjjjjjjjjjkkkkkkkll
(PID.TID 0006.0001) //    356 zzzyzzyxwwwwvuutttsssttuuuuvvvvvwvvtry+..................................................................................................................++.++++.......+........++++++++++++xusqqppppooooonooonmnmmmllllllmmmmlmmmmmmmnmmmmnnnnnnnnnnnnnnnnnnnnnnnoonnmmkkllmmmnlllklkjklmmlllmnnnnooooqrroqonnlkklpqnqqqooonnnnnmmnonmllmlllkjjjjjjjjjjjjjjjjjjjjkkkkkkklll
(PID.TID 0006.0001) //    355 zyyzywwwwvuutttssssssttuuuuvvvvvvvutsz+.................................................................................................................++++..+........+..........+++++++++++zusrqqqpppoooonooqtonnoolllmmmmmmmllllmmmmlnmmlmmmmnmmmmmmmmmmmmmmmmmmmmlllkkkkkkkkkijjjllkkmllllmnnnnnoooopooolkmooooqqpqqqoooonnnnommllmnmlkjjkkjjjjjjjjjjjjjjjjjjkkkkkkkllll
(PID.TID 0006.0001) //    354 vvtsrsrrrrrrrsrrrsssssttttuuuvutuutrsz+...............................................................................................................++++....++..++++++............+.++++++++yutsrqppppooooooqvuvqqrmmmmmmnomnmlllllmmllllkkkklllkkkkkkkkkkkkkkkkllllllllllllllmmmmmllllllllllmnnnnnmmlmmmknnnooopqqqqqooppoonnnnmmnnmlkjkllkjjjjjjjjjjjjjjjjjjjkkkklllllll
(PID.TID 0006.0001) //    353 qqppqqpqqqqqqqqrrrrsssssststuttsttsqtz+........................................................................................................................+++++++.................++++++++zyutsrrqpppppppqrsstqqsppppoonnonmmlllllllllkkkkkkkjjjjjjjjjjjjjjjjjjjjjkjllllkjklllllkkllkkkkkllmmlkklmlmmnnnnnooooqqpqrqopqnnnnnnnnmllmlllkjklkjjjjjjjjjjjjjjjjkkkkllllllll
(PID.TID 0006.0001) //    352 pppppppppqqppqqqqqqrrrrssstuurrsssrpsz+...+.......................................................................................................................+++..................+++++++++++ywwzzzyxvtsrrstrqqpppoooooonnnmmmmmllllllllkkkkkjjjjjjjjjjjjjjjjjjjjjjjjkkkjjjjkjkjklnmlkkkkkkjlnmmmnnnnnnnnnnnnooooopppqpoonnnnnmnnnmllllllkjjkkjjjjjjjjjjjjjkklllllllmll
(PID.TID 0006.0001) //    351 pppppppppppppppqppqqqqrrqrrrrqrrrrrprz++.++........................................................................................................................++.................+++++++++++++++++++++zxututrqpppoonnnnnnnnnmmmmmmlllllllkkkkjjjjjjjjjjjjjjjiijjjjjjjjjiihjjkkkkiiihhjklnmlkmkjlnnnnnnononnoonopqpqqpqqoonnnnnnnnnmlllllkkkkkkkkjjjkkkkjjjkklllllllmmll
(PID.TID 0006.0001) //    350 ppppppppppqpppppppppppqqqqqqqqqqqqporx+++++.......................................................................................................................++...................++.....+++++++++++++++xuttsqpqppoonnnnnnnnnmmmmmmmlllllkkkkkjjjjjjjjjjjjjjiiiiiijiihhhhhhhhhhhhhjjjjjjjjjjjjjlmllnnnnmmllnnoqqqqqqpqqooooonnnmmmmmmllllllllkkjjkkkkkkkjkkklllllllllll
(PID.TID 0006.0001) //    349 ppppppppppppppppppppppppqqqqqqqqqqpnsx+++++............................................................................................................................................+++.........+++++.+++++yvtsssqpppoooonnnnnnmmmmmmmlllllkkkkkjjjjjjjjjjjjjjiiiiiiiiijjjjiihhhiijjjjjjjjjjjjjkklllllllllmmnooooopqqqooopppponnnnmmnnmllllllllllkkkkkkkkkkkkklllllllllll
(PID.TID 0006.0001) //    348 ppppppppppppppppppppppppppqqqqqqrpomux++++............................................................................................................................................++...................++++zyutwuqqrppoononnnnnmmmmmmllllllkkkkkjjjjjjjjjjjiiiiiiiiiiiiiiiiihhiijjjjjjjjjkkkkkklllllllmmnnnnnnoooooopoqppooonnnnnnnnmmlmmlmnmlllkkkkkkkkkkkkkklllnmmlmml
(PID.TID 0006.0001) //    347 pppppoooopppppppppppppppppqqqqrrpolovz+++....................................................................................................................................................................++++zvyxrrtrqpppvonnnnnnnmmmmllllllkkkkjjjjjjjjiiiiiiiiiiiiiiihhhhhhijjjjkjjjjjjkkklllllllllmnnnnnnoopooppqqpqqppooonnnnnnnnnmnmnnmmllkkkkkkkklkkkkkkllmlllmmlm
(PID.TID 0006.0001) //    346 opooooooooooopppppppppppppqqrrpponlqxz++......................................................................................................................................................................++++zxvsttqqqpqqqonoppqpnnnmmllllkkkkkjjjjjjjiiiiiiiiihhhhhhhihhhhjkjjjjjjjjjjkkkkllllllllmmnnnnnnnooooqqqrorqqponnnnnnnnnnnnnnnmllllllllllklkkkkkklllllmllllm
(PID.TID 0006.0001) //    345 oopoooooooooopppppppppppppqrpppponltxz+.........................................................................................................................................................................++++xutttuyvystpopwussnrvnmmlllkkkkjjjjjjjiiiiiiiihhhhhhhhiihhhijjjjjjjjjjjjjjkklllllllmmnnnnoooooooopqqsorpoonooonnnnnnnnnnmmllllllllllllllkkkkllllllllllll
(PID.TID 0006.0001) //    344 ooooooooooooooooppooooppppoooopoonmrw+..........................................................................................................................................................................+++++yuuuwwusqppooppqrnnnmmmllkkkkkjjjjjjiiiiiiiihhhhhhhhhhhhhhhhhijjjjjjjjjjjkkllllllmmnnnnnnnnooooopqqqoqqqpqpoonnnnnnnnnmmmmlllmlllmlllkkklllllkklllollll
(PID.TID 0006.0001) //    343 noooooooooooooooooooooppoonnoooonmmsz.............................................................................................................................................................................++++xutuutrqpoonmmnommmmmllllkkkkkjjjjjiiiiiiihhhhhhhhhhhhhhhhhiijjjjjjjjjjkkkllllllmnnnnnnnnonooopqqqsoqqpoooooonnnnnnnmmmmlllmnllmllkkkklmklkkkkkllkllll
(PID.TID 0006.0001) //    342 nnnnnnnnnnnoooooooooooponnnooooonlmt+..............................................................................................................................................................................++++zxwxyywroonmlmmllllllllkkkkkjjjjjiiiiiiiihhhhhhhhhhhhhhhiiijjjjjjjjjjkkklllllllmnnnnnnnoooooopqqqqoqqqpooooonnnnnnnnmmlllmmmlmllmkkkkkkkkkkkkkkkkllll
(PID.TID 0006.0001) //    341 nnnnnnnnnnnnnnooonoooonnnnnoopponklt++..............................................................................................................................................................................++++++++++xponmlllllllllkkkkkkjjjjjiiiiiiiihhhhhhhhhhhhhhhhijjjjjjjjjjjkkklllllllmmnnnnnnnoooooooppqrqqqqopoopooonnnnnmmmmllllllllkklkkjjkkjjjkkkkllmmml
(PID.TID 0006.0001) //    340 nnnnnnnnnnnnnnnnnnnonnnnnnoopponmkltz.................................................................................................................................................................................++++++++xpnmmllllllllkkkkjjjjjjjiiiiiiiihhhhhhhhhhhhhhhhhijjjjjjjjjjjkkkllllllmmnnnnnnnoooooooooooqrrqrqqoopooonnnnnnmmmmnmlllkkkkkiijjjiijkklllllmnnl
(PID.TID 0006.0001) //    339 nnnnnnnnnnnnnnnnnnnnnnnnnooponnnnklrz+......................................................................................................................................................................................++vqommlllllllkkkkjjjjjjjiiiiiiihhhhhhhhhhhhhhhhhhhiijjjjjjjjjkkklllllllmmnnnnnooooooooooooprrrrqqqpooooonnnnnnnmnnmlllkklkjhikjjhikkllllllmnonl
(PID.TID 0006.0001) //    338 nnnnnnnnnnnnnnnnnnnnnnnnnnpnnnnqmkkry++.....................................................................................................................................................................................++wpommllllllkkkkjjjjjjjiiiiiihhhhhhhhhhhhhhhhhhhhhiijjjjjjjjjkkllllllllmnnnnnnnnnnnnoooooopqqqqqqqpoooonnoooonnmmlllkkkkjjjjlkjijjlllllllmnopnl
(PID.TID 0006.0001) //    337 nnnnnnnnnnnnnnnnnnnnnnnnnpnnnnonmkipw++.....................................................................................................................................................................................++xsqnmlllllkkkkjjjjjjjiiiiiihhhhhhhhhhhhhhhhhhhhhhhijjjjjjjjjkkkllllllllmmmmnnnnnnnnooooooppqqqrqqoooooooooonmllkkkkkkkjjjjjjkkjllllllmlmmmmmll
(PID.TID 0006.0001) //    336 nnnnnnnnnnnnnnnnnnnnnnnnnnnnnnnmmkiovz++.....................................................................................................................................................................................+zsqpmllllkkkkjjjjjjiiiiiiihhhhhhhhhhhhhhhhhhhhhhhhijjjjjjjjjjkkkkllllllllllmnnnnnnooooooooqqqqqqqqqqoooonmmlllkkkklmmkjkjjjjkllllllmllmmmmmlmo
(PID.TID 0006.0001) //    335 mnnnnnnnnnnnnnnnnnnnnnnnnnnnnnnmmkinty++.....................................................................................................................................................................................+ztrqomlllkkkkjjjjjiiiiiiihhhhhhhhhhhhhhhhhhhhhhhhhjlkjjjjjjjjjjjkklllllllmnnnnnnnooooooopqqqqrnsqqpoonmmmmmmlmlkkllmllkklkjjjkklllllmmmmmmmmsr
(PID.TID 0006.0001) //    334 mmmnnnnnnnnnnnnnnnnnmmmmmmmnnnnmmkilswy+++...................................................................................................................................................................................++wrqomllllkkjjjjjiiiiiiiihhhhhhhhhhhhhhhhhhhhhhhhhhijjjjjjjjjjjjkkllllllmnnnnnnnoooooppooqqsrroqonnnmmmnnnmmmmllllllllllkkkkjllmmmlmmmmnmmsqmm
(PID.TID 0006.0001) //    333 mmmmmmmmmnnnnnmmnnmmmmmmmmmmmmmmmljioty+++...................................................................................................................................................................................++zsqqpolllkkjjjjiiiiiiiihhhhhhhhhhhhhhhhhhhhhhhhhijhiijjjjjjjkkkkkllklmmnnnnnnnnooonopqoqqpqnnnnnnnnnooonnnmmmmllmlkklklljjkjklmmmmmmmmmmnqrlk
(PID.TID 0006.0001) //    332 mnnnmmmmmmnnnmmmmmmmmmmmmmmmmmmmmmkimsy++++...................................................................................................................................................................................++uommlllkkjjjnjjiiiiiiihhhhhhhhhhhhhhhhhhhhhhhhjiiijjjpljjjkkkkkllllmnooooooooooonnnnnnoooppnoooooooooonnmmmmlllmkkkkllkjklkjklllmlmmmmommlkj
(PID.TID 0006.0001) //    331 nnnnmmmmmmmmmmmmmmmmmmmmmmmmmmmnmmkijrxz++++..................................................................................................................................................................................++vpmlmmlkkjjjkjiiiiiiiihhhhhhhhhhhhhhhhhhhhhhhhijjjjjkkkkjjkklllmnnnnoqqponnnnnnnnnppqqqqpppooooooooooonnnnmmmllkkkklklkllllkklllllmnnmmkjjkj
(PID.TID 0006.0001) //    330 nnnmmmmmmmmmmmmmmmmmmmmmmmmmmmmnnmljhovyz+++..................................................................................................................................................................................++xpmmnmlkkkjjjjiiiiiiiihhhhhhhhhhhhhhhhhhhhhhhhijijjjjjjjklllllmnnnnnoooonnnnnnnopqqrqqrrqpppppoooooooonnnnmmlllllllkkkmllkllkllllmnmmljjjjjj
(PID.TID 0006.0001) //    329 mnnnmmmmmmmmmmmmmmmmmmmmmmmmmmmmmmljhltwzz+++.................................................................................................................................................................................++xtnmlmlklkjjiiiiiiiiiihhhhhhhhhhhhhhhhhhhhhhhhhhhijjjjjjklllllnnnnnnonnnnnnoopqqxrrtrqrrqqqqqpoooooooonnnmmllllkkkkklllkjjlllllmlmnlkjjjjjjj
(PID.TID 0006.0001) //    328 mmmmmmmmmmmmmmmmmmmmmmmmmmmmmmmmmlljiiqwyz++++................................................................................................................................................................................++xvsmlkkkkjjjiiiiiiiiiihhhhhhhhhhhhhhhhhhhhhhhhhhhhijjjjjjkkklllmnnnnnnnnnnoooprssqstqrrrqqrqqpooooooonnnmmmlllllkkklkjjjjkklllkllmlkkjjjjjii
(PID.TID 0006.0001) //    327 mmmmmmmmmmmmmmmmmmmmmmmllllmmmmmlllkjhnvxz++++...............................................................................................................................................................................++zwusmkkkkklkjljiiiiiiihhhhhhhhhhhhhhhhhhhhhhhhhhhhhijjkkjjjklllllmnnnopooooooopqqqrsrrrrqqqqqpoooooooonnnmmlllmlnlkkkjjjkllllllkkmmlkjjjjjjij
(PID.TID 0006.0001) //    326 mmmmmmmmmmmmmmmmmmmmlllllllllllllllljhjswy+++++..............................................................................................................................................................................++xutrmkkkjjjnppjjiiiiihhhhhhhhhhhhhhhhhhhhhhhhhhhhhhijjllklkkllllmmnnnoooooooooqqqqrrsssrrqqqqqpoooppoonmmmmnmlnmmkkkkkkllllllllkkllkkjjjjiiji
(PID.TID 0006.0001) //    325 mmmmmmmmmlllllmmmlllllllllllllllllkmkihotxz+++++.............................................................................................................................................................................+zusrplkkkjjklkkjkjiihhhhhhhhhhhhhhhhhhhhiihhhhhhhihhhjjjjjjklmmnlponnnnnnoooooopqqrrsttssqqqqqqooooppoonnmnnnmmlllllklllllllllkkkklkmkjjijiiji
(PID.TID 0006.0001) //    324 mmmmmmmlllllllllllllllllllllllllllllkjhkpvz+++++............................................................................................................................................................................++ysoomllkkjjkkkjklkkiiiiihhhhhhhhhhhhhhhhhihijjjihjhhhjkklkklnnmllmmnnnnnnnnnnnoooqrsststsqqqpooooooooonnnnnnnmllllmmlllllllllklkkkkmkjjiiiiiih
(PID.TID 0006.0001) //    323 mmmmmmmlllllllllllllllllllllllllllllljihmtx+++++...........................................................................................................................................................................++zvqnmmllkkjjjkjjllnojiiiihhhhhhhhhhhhhhhhhhhhhhhhhhihjjkllkjkllllllllllmnnnnnnnnooprrrsstsqqqpooooooooooonnonnnmmllmmmlllklllnnnllkjkjjiiiiiihh
(PID.TID 0006.0001) //    322 mmmmmmlllllllllllllllllllllllllllllllkjhipuy+++++.........................................................................................................................................................................+++vropokkkkkkjjjjjklkjjiiihhhhhhhhhhhhhhhhhhhhhhhhhhhiiijjkkjjjjkkklllllnmnnnnnnnnooopqqrsvsqqqpppoopqpppooooonnnmllllmnmlklnmmnpmlljjijiijkjiihh
(PID.TID 0006.0001) //    321 mmmmmmllllllllllllllllllllllllllllllllkihksvxz+++.........................................................................................................................................................................++xqpnnlkkkkkkjjjjjjjjjiiiihhhhhhhhhhhhhhhhhhhhhhhhhhhhgggghhhhjjjjjlllllmnnnnnnnnnnopqqqrttrqqqqqqqpppppppoooonnnmllmmnoorllmllmllkjiijjjklnkihii
(PID.TID 0006.0001) //    320 mmmmmmmlllllllllllllllllllllllllllllllljihotvx++++.......................................................................................................................................................................+zvrpnnllkkkkkkjjjjjjjjjiiihhhhhhhhhhhhhhhhhhhhhhiiihhhhggghhhhijjjjjkklllmnnnnnnnnnoopqqqqtsrqqqqqqqppoooooooonnmmllmmnnooolllkkljjjiiijjjlkkjiiii
(PID.TID 0006.0001) //    319 mmmmmmmllllllllllllllllllllllllllllllllkjhkpuwyz++......................................................................................................................................................................++xsponmlllkkkkjjjjjjjjjiiiiiihhhhhhhhhhhhiihhhhhiiiiihhhhggghhhijjjjjkllllmnnnnnnnnooooqqqqsrqqqqqqqpppooooononmmlllmnmmmmmlllkkkjjkjjiijkkjjjiiiih
(PID.TID 0006.0001) //    318 mmmmmmmmlllllllllllllllllllllllllllllllkjigmquwyz++...................................................................................................................................................................+++ytqonmmlllkkkjjjjjjjjjjiiiiiiihhhhhhhhhhhiihhhhhijjiihhhhghhhhhhjjjjjkllllmnnnnnnnnnnooopqqsqsqqqqqppoqonnnnmmlllmnmmmmmlllllllkjjjjjjjjjkkjiiiiihh
(PID.TID 0006.0001) //    317 mmmmmmmmmmllllllllllmlllllllllllllmmlllllkhinrtxyz+..................................................................................................................................................................+++xurponmmllkkkkjjjjjjjjjiiiiiiiiihhhhhhhhhhhhhhhhiijjiihhhhhhhhhhjjjjjklllllllnnnnnnnoopqpppqqqqqqqqponnnnnnnnmmlmlmmlllllllllllkkjjjjjjjjjjiihiiiihh
(PID.TID 0006.0001) //    316 mmmmmmmmmmmmmmmllllllllllllllllllllmllllkkhgkpsuxz++................................................................................................................................................................++zwsqponnmllkkkkkkkjjjjjjjiiiiiiiiiihhhhhhhhhhhhhhhhhiihhhhhhhhhhhijjjjjklllllmnnnnnnooopqqqpqqtprqqpooooonnnnnmmllllllllllllllllllkjjkjjjjiiiiijimssii
(PID.TID 0006.0001) //    315 nmmmmmmmmmmmmmmmlllllllllllllllllllllllllkjihnquxy++...............................................................................................................................................................++zvrppoonmllllllllkkkjjjjjjjiiiiiiiiihhhhhhhhhhhhhhhhhhhhhhhiihhiiijjjjkkklllllllmnnnnoooopqppqppooppooooooonnnnnmlllllllllllllllmlmlkjjjiiiiiiiktkkljhh
(PID.TID 0006.0001) //    314 nnnnnmmmmmmmmmmmmmlllllllllllllllllllllllkkihjosvxz++..............................................................................................................................................................++xsqpoonnmlllllkkkkkkjjjjjjjiiiiiiiiihhhhhhhhhhhhhhhhhhhhhhhhhijjjjjjkkklllllllllnnnnnnnnoooooopqqpppoooooooonnnnmlmllllllllllmlmmllkjjiiiijiiijlojihhhh
(PID.TID 0006.0001) //    313 nnnnnnmmmmmmmmmmmmmlllllllllllllllkkllllllkjiglqtvx+++.............................................................................................................................................................+ztqpoonmmmllmlllkkklllkjjjjjjiiiiiiiihhhhhhhhhhhhhhhhhhhhhhhhhhjiijkllllllllllllllmnnnnpprprqsqqqqpqpoooooooonnnnnnmllllllllllmllkkkjkkiiijjjiiiiiihhhhh
(PID.TID 0006.0001) //    312 nnnnnnmmmmmmmmmmmmmmllllllllllllkkkklllllllkjiiortvz++............................................................................................................................................................++wrqponnmmllmmmnpmllklomkjjkljiiiiiiiihhhhhhhhhhhhhhhhhhhhhhhhhhhhijkkkkkjjklllmmmnmoooppssqrqqqqqqpoooooooooonnnnmmmllmmlmlllllkkkkjjkjijjijjhhhhhhhhhhi
(PID.TID 0006.0001) //    311 mmmnnnnnnnnnmmmmmmmmlllllllllkkkkkkkkllllllkkjilqsvxz++...........................................................................................................................................................zxsqponnmmmllmmmnnmmlllookjjjiiiiiiiiiihhhhhhhhhhhhhhhhhhhiiihhhhhhhihhjjjkkllllmnnnonooqprsqqqqqqqqpoooooooooonnmmlllmmmmmllmnnnnmmmlkkkjijhhhhhhhhhhhhhi
(PID.TID 0006.0001) //    310 mmmmnnnnnnnnnmmmmmmllllllllkkkkkkkkkkklllllllkjimptwyz+.......................................................................................................................................................++.zxsqponnmmmmlllmmmmmmmmlmomjjiiiiiiiiiiihhhhhhhhhhhhhhhhhhhhihiiiiijjjkjkklllllllmnnnnnooopppqqqrqqqqpopoooooooonnmmmmlmmlmllmoopooomnllklkhhhhhiiihhhhhghi
(PID.TID 0006.0001) //    309 mmmnnnnnnnnnmmmmmmmlllllllkkkkkkkkkkkkklllllllkiioruxyz+......................................................................................................................................................+++zsqponnmmmmlllllllllmmmlklkjjjjiiiiiiiiiihhhhhhhhhhikkkihijijijjjjjkjjkkkllllllllmnnonooooppoqrqqqqqqpooooppooononnmlllllllllnosrrstmmllkkkjjhhijjihiihhhhh
(PID.TID 0006.0001) //    308 mmmmnmmmnnmmmnnmmnlllllllkkkkjkkkkkkkkklllllllkkikpsvxz++.....................................................................................................................................................++ztqpoonmmmmllllllllllllllkkjjjjjiiiiiiiiiihhhhhhhhhhhjjkihhhhhhhijjjjjjjjkllllllmmnnnnoooppqpqqqrpoppppqqpoppoooonnmnnmlllllmmnopssqnmmlkkkkmlihijjiiiihhhhh
(PID.TID 0006.0001) //    307 nnnnnnmlnnmmmnmmlllllllkkkkkjjkkkkkkkkkklllllllkkilquwzz+....................................................................................................................................................++zusqponnmmmllllllllkkkkklkkkjjjjjiijjjjjiiiihhhhhhhhhhihhhhhhhjijjjjjjjjjkkllllllmlnnnnnnooooopqprqqqqpopoooooonnnnnpppnmnmnnnnnpponmmmllkkkkkkihiiijijiiihhh
(PID.TID 0006.0001) //    306 noonnnmmmmmmmmmlllllllkkkkkkjjkkkkkkkkkkllllllllkkimquyz+....................................................................................................................................................++ztqpoonnmmlllllllllkllllkkkkkjjjjiijjjjjjiiihhhhhhhhhhhhhhhhhijjiijjjjjjjjjjklllllmnnnnnnooqppqsqqrqppppqopqonnnopnoqqpoopooqonnoonmllllllkkkjjjhhhijiiiiihhh
(PID.TID 0006.0001) //    305 nnnnmmmmmmmmmlllllllkkkkkkkkjkkkkkkkkkkklllllllllkkknrwz+....................................................................................................................................................++wsqponnmmmllllllllkklmnmmkkkkjkkjjjkljjjkliiiiiiiihhhhhhhhhhhhhihhijjjjjkkkkklllllnmnnnnnnnopoqrqqrqqqqoonnnoopnopooppooooonnnmmmmmmlllmmllkkjjjiihhhihhiiihi
(PID.TID 0006.0001) //    304 nnmmmmmmmmmlllllllllkkkkkkkkkkkkkkkkkkkklllllllllllkkosxz....................................................................................................................................................++vsqponnmmllllllllllllmnnllkkkkkjjjjjjjjjjiiiiiiiiihhhhhhhhhhhihihijjkjjkkkkkkkllllllmnnnnoopqqqsqpnonoonpopoooooooooooooonnnmmmmmmmmllllllllkihhhhijkkiiiiijj
(PID.TID 0006.0001) //    303 nmmmmmmmmlllllllllllkkkkkkkkkkkkkkkkkkkkklllllmmmmllkkpvz+...................................................................................................................................................+zvsqponmmmllllllllllllmmmllllkkkkjjjjjjjjkliiiiiiijihhhhhhhhhhhhihiiiiiiijjkjjkllllllmnnnoppmonnnpopprrqpqoopppoooooopopqonnmmmmmmnmmllllllllkiihjkkkjihiiijjj
(PID.TID 0006.0001) //    302 mmmmmmmmlllllllllllkkkkkkkkkkkkkkkkkkkkkklllllmmmmmmlkkqw++..................................................................................................................................................+zvsqoonmmmlllllllllllllllllllllkkkjjjjjjjjiiiiiiiiihhhhhhhhhhhhhhhhhhhhhjkkllkllllllllmmmmmnnoppqrqqqqqqqqpppopooooooopopnmmmmmmmmmmmmllkkkkkjjjkkkjihiiiiiiji
(PID.TID 0006.0001) //    301 mmmmlmlllllllllllllkkkkkkkkkkkkkkkkkkkkkklllllmmmmmmmmlmrxz+.................................................................................................................................................++wsqonnmmmlllllllllllllllllmmmllkkkjjjiiiiiiiiiiiihhhhhhhhhhhhhhhhhhhhhijkllkklllllllmmnmnoqopppqqqqssqqqqopopppoonnooonnnnmmmmllllmmmllkkkkjjjjkjiiijjjkiiiii
(PID.TID 0006.0001) //    300 mmlllllllllllllllllkkkkkkkkkkkkkkkkkkkkkllllllmmmmmnnonmmqvz+................................................................................................................................................++ytqonmmmmmlllllllllllllllmmnmllkkkjjjiiiiiiiiiihhhhhjhhhhhhhhhhhiiiiijjjjkjjklllllmmnnnnnopoopqqrrrqqqqqqpqpqoooonnnpponnnmmmmmlllmmmllkkkjkkjjjjkjkkjjjijiih
(PID.TID 0006.0001) //    299 mllllllllllllllllllkkkkkkkkkkkkkkkkklllllllllllmmmnopppomlqvz+...............................................................................................................................................++zuqonmmmmmllllllllllllllllmmmlkkkjjjjiiiiiiiiiiihhhhihhhhhhhhhijjjjjjjjjjjkkllmmmmnnonnnoooqpqqqqqqrsqrqqqqqoonoonmnnmmmnommmmmmmnmmmmllkkkkkjjjkkkkjiiiiiihh
(PID.TID 0006.0001) //    298 mlllllllllllllllllllkkkkkkkkkkkkkkkllllllllllllmmnoopqqqollqvyz+.............................................................................................................................................++ztrponmmmmmlllllllllllllllmmllkkkjjjjjiiiiiiiiiiiiiiiiiiiiiiiijjjjjjjjjjjkllllmnnnnnnnnoooopoopqqrqrrqqqqqqqnonnnnnnmmmmmmmmmmrsmmmnnmlllkkkkjjjjjjjjjjiijiih
(PID.TID 0006.0001) //    297 lllllmmmllllllllllllllllllllllkkklllllllllllllmmnnopqrrqpoljotvy++............................................................................................................................................++zytonnnmmmmmmmmllllllllllllllkkkkjjjjjiiiiiiiiiiiiiikiiijiiijjjjjjjjjjkkklllllmnnnnnnnoooopoqppqqqrqrqrpqonnnnnnnnnnoommmmmmmrpmmnsvmlllkkkjjjkkkjjjjiiiijih
(PID.TID 0006.0001) //    296 lllllmmmmlllllllllllllllllllllkkklllllllllllllmnoopqrssrppnjimruwz+..........................................................................................................................................+++++xponnmmmmmnmmmllllllllllllkkkkkjjjjjjiiiiiiiiiiiiiiiijjjjjjjjjklkkkkkklllmmmmnnnnnnnnoooooppqqqqroqnonnnnnnnonooooonnnmmmmmmmmmmqtmlllkkkjjkklkjiiijjkjjii
(PID.TID 0006.0001) //    295 lllllmmmmllllllllllllllllllllllkllllllllllllllmnopqrssrqpommiglpruxz++.......................................................................................................................................++++yzqonnnnmmmmmmmlllllllllllkkkkkkkkjjjjjijjiiiihhhhiijjjjjjjjjjkmlllkkklllmmmnnnnnnnnnnoooooqpoonnnononooppopoooooooonnnmmmmmmlllmmmllllkkjjjjkkijjjjjijjiii
(PID.TID 0006.0001) //    294 lllllllmlllllllllllllllllllllllllllllllllllllmnnppqrsrqponnnkigjnptvxz++.....................................................................................................................................++zwtrpnnoqnmmmmmmmllllllllllkkkkkkkkkkjjjjjjjiiihhhhhhijjjjjjjjjjkllmmkkkllllllllmnnnnnnnooopnnnooqorqqqpqqpoopoooooonnnnnmmmmmmmmllllllllkjjjjjijjjjkjijjiiii
(PID.TID 0006.0001) //    293 llllllllllllllllllllllllllllllllllllllllllllmmnopqqqrqpponnnlkjgejorsvyzz....................................................................................................................................++yusqqpppononmmmmmllllllllllkkkkkkkkkkjjjjjjiiiiijiijijjjjjjjjjjjjkkkkjjjkllllllmnnnnnnnnnnnpoqppqqqrqqqqqqqqppoooooonnnnnmmnmmmmmllllllkkkjiiijkkjjjjijjjiiii
(PID.TID 0006.0001) //    292 lllllllllllllllllllllllllllllllllllllllllllmnnnoqqqqppoonmmmlljjgdhlpsvxxz+.................................................................................................................................+++zusrxvyyroonmmmmlllllllllllkkkkkkkkkkjjjjjiiiiiijiiiiiiiiijjjjjjjkkolkjjkllllllnnnnnnnoooopqoqpqqqqqprqqqqqqoooooooooononmmmmmmmmllllkkjjjjiijjjjjjjjjjjjiiii
(PID.TID 0006.0001) //    291 llllllllllllllllllllllllllllllllllllllllllmnopopqqqpoonnmmmmlmkkjhegjptvwxz++...............................................................................................................................++++yusrrpponnnnmmmlllllllllllkkkkkkkkkkkjjjjiiiiiiiiiiiiiiiiiiiijjjjkkkjjjjjkkklmnnnnnnonnnnooopqqqqqqqqqqqqqpoooopooooonmmmmmmmmmllllkkkkjjjjjjjjjjjjjjjkjjiii
(PID.TID 0006.0001) //    290 llllllllllllllllllllllllllllllllllllllllllmnppppqppoonnmmmmmllllkkiffkptvwyy+...............................................................................................................................++++++vvqponoppnnmmmllllllllllkkkkkkkkkkjjjjjiiiiiiiiihhhhhhhhhhijjjjjjjjjkllmmllnnnnnnnoooonopooopqqqrrrqqqqqqpopoooonnnnnnmmmmmnmlnllllkjjjjjjjjiiijjkjjkjjiii
(PID.TID 0006.0001) //    289 lllllllllllllllllllllllllllllllllllllllllmnopqqpponnnnmmllllllllllljhfjortxyz+..............................................................................................................................++++++++zrvnpwunnmmmmmllllllllllkkkkkkkkjjjjjiiiiiiiiiihhhhhhhhhhhjjjjjjjjjjkllllmnnnnnnooooooooppppqqqqrrssqppoooooooononmnmmmmmmmmnllkjjjjjjjjjiiijjklkjiiijii
(PID.TID 0006.0001) //    288 lllllllllllllllllllllllllllllllllllllllmmnopqqqpqonnnmmllllllmmllmnmlieimquwxyz............................................................................................................................+++++++++yuonoponnmmmmmmlllllllllllkkkkkkjjjjjjiiiiiihhhhhhhhhhhhhjjjjjjjjjjjjkllllmmmnnnoonnonoooppqqqqrqrrqpooopppooonnmnnnnmmmnnllkkjkjjjjjjjjiijjjjklkiiijiih
(PID.TID 0006.0001) //    287 lmllllllllllllllllllllllllllllllllllllmmmnoqqqpoonnnmmllllkklmmllmmmnlifglruwxyz+.........................................................................................................................+++++++++wqpnnnnnnmmmmmmmmllllllllllllkkkkjjjjjjiiiiiiihhhhhhhhhhhhjjjjjjjjjjjjjklllllmmnnonnnnoooqqppopqqqqrrpqqqpoonnnnnnnnnnnmmnmkjlkjjjjjjjjjjjjjjjjjjjijjiiji
(PID.TID 0006.0001) //    286 mmllllllllllllllllllllllllllllllllllllnmnnpqqqpnnnmmmlllkkkllmllllllmmljfgmrtvwx+.........................................................................................................................++++++++xqoonnnnnnmmmmmmmmmmmmmmmmllllkkkjjjjjjjiiiiiiiihhhhhhhhhhhhiijjjjjjjjjjjjjjkllmnnnnnoooooooppoqpqqqqqqqqpqppppoononnnnnllmmmlkkkkjjjjjjjjjjjjjjiijjjjjjjk
(PID.TID 0006.0001) //    285 mmmlllllllllllllllllllllllllllllllmmmmmnnnoqqpnmmmmlllllkklllllllllllmmljfinruvw+.........................................................................................................................++++++++xpoonnnnnnmmmmmmmmmmmmmmmmlllllkkjjjjjjjiiiiiiiihhhhhhhhhijiihiiiijjjjjjjkllmllmnllmnnnnooppppopoqqrqqsrqqppooopooonnnmmnlmllllkjkkjjjjjjjjjkkkjijjiijkjjj
(PID.TID 0006.0001) //    284 nmmllllllllllllllllllllllllllllllmmmmnnnnopppnnmmmmlllllllllkkkklllllmmnlhejqtvwz.........................................................................................................................++++++++vpoonnnnnnmmmmmmmmmmmmmmmmmlllkkkjjjjjjjiiiiiiiihhhhhhhhhihhhhiiijjjjjjjjjllllllllmmnnnnnnnnoppqqqqqqrqqqpqqpqppoonnnnnnmlllllklllljjjjjjjjklkjjkjiijjjiii
(PID.TID 0006.0001) //    283 nnmmmlllllmmmmmmllllllllllllllllmmmmnnoooqqpnmmmmmmlllllllllkkkkkkklllmnnkgdkruxz.........................................................................................................................+++++++ztppoonnnnmmmmmmmmmmmmmmmmmllllkkjjjjjjjjiiiiiiiihhhhhhhhhjiiiiiiijjjjjjjjjkklllllmnnnnnnnnoooooqppqrqsrqqrqqoonnnnonoonmlllllmlllkjjjjjjjklljjjijiijjkiijj
(PID.TID 0006.0001) //    282 nnmmmmmmmmmmmmmmmlllllllllllllllmmmnnopprsqonmmmmmmllllllkkkkkkkkkkkllmnnnjdfntwy+........................................................................................................................+++zzzzyxtroonnnmmllmmmmmmmmmmmmmmlllkkkjjjjjjjjjjiiiiihhhhhhhhhiiiiiiiiiijjjjjjkkkllllllmnnnnnnnnoooopppqqrqrqrqqopoppoooooonnmlmlmklkjjjjjjjjjkkkjjjiijjjkiihiii
(PID.TID 0006.0001) //    281 nmmmmmmmmmmmmmmmmmllllllllllllllmmnnopqqrqpnmmmmmmllllllkkkkkkjjjkkklllmnpkhdlswy+.......................................................................................................................+++zxwxyyxxqooonnnmllmmmmmmmmmmmmmmmllkkkjjijjjijjjjiiiiihhhhhhhiiiiiiiiijjjjjjjkllllllllmmnnnnnnnnnnooopqpopopqrrsqrqqqqqpoonnonmmkkjjjjkljjjklkkkkkjiiijjijiiiiii
(PID.TID 0006.0001) //    280 mmmmmmmmmmmmmmmmmmlllllllllllllmmmnopqqqqponmmmmmllllllkkkkkkkjjjkkkklllnonidjrwx+......................................................................................................................+++ywvuvxxvuuprqpoonmmmnmmmmmmmmmmmmmlllkkkjijkjjjjjjjiiihhhhhhhhhhiiiiiijjjjjjjjkllllllllmmmmmnnnnnnooonnnoqqqqqqrsqrqqqqqpooonnllkkkjjjjjjkkllkkkkjjjjjjiijkkjiiii
(PID.TID 0006.0001) //    279 mmmmmmmmmmmmmmmmmmmllllllllllllmmnopqqrsqnnnmllllllllllkkkkjjjjjkkkkklllmpqmehqwy.......................................................................................................................++zwuutttvuuttvwuvrqooponmnnnmmmmmmlllmmkkkmololjjjjjjiihhhhhhhhhiiiiiiijjjjjjjjjkllllklllnnmmmnnnnnnnnoooppppqqqrrsqqqqqqopnnnnmlllmmljjjjlllkkkjjjjjjjkjjlljjijjii
(PID.TID 0006.0001) //    278 mmmmmmmmmmmmmmmmmmmmllllllllllmmnnoqrsssonnmlllllllllkkjkjkjjjkkkkkkklllmnolfgqwz......................................................................................................................+++yvtsssrxyxxtqqquvwvuwxpnnnnmmmnruomlllkkloyoulkjjjjjiihhhhhhhiiiiiiiiijjjjjjjjjkkllkkllllllmllmnnnnnnoooopppqpqqrrqrqqponnponmlllllmkjjjjlljkkjkkjjjijmlkjihjjiiii
(PID.TID 0006.0001) //    277 lmmmmmmmmmmmmmmmmmmmmllllllllmmnoopssturnmllmmllllllkkkkkljjjkkkkkkkkkkllmnkhhquz+....................................................................................................................+++zwutsrrqrvuronnnopqspttrrwupmmmnoqnmkkkkklnlkjjjjjjjjiiiiiiiiiiiiiiiiiijjjjjjjjjjjjkjkklmlllmmmnnnnnnnnonnoooppqrsrqqooooppqpnmlmnlkkkjkljjkkjkklljjiikljiiihihiiii
(PID.TID 0006.0001) //    276 lmmmmmmmmmmmmmmmmmmmmmmlllllmmnnprstttsomlmnmmlllllllkkkklkjkkkkkllkkkkllmnkhfoty+....................................................................................................................+++xwutsrrqpppnmmllmmmmmnooqrsnmmmmmlllkkkjjjjjjjjjjjjjiiiiiiiiiiiiiiiiiiiijjjjjjjjjjjklllllllllmnnnnnnnnnnoooqqqrprqqqrqqqqqqqqnmllllklljjjjkklkklkjiijjkiiijjiihhiii
(PID.TID 0006.0001) //    275 mmmmmmmmmmmmmmmmmmmmmmllllmmmnnoqstuvtpnmlmmmlllllllkkkkllkjkkkkkllkkklllnmlgenty+...................................................................................................................++++xwutsrqponnnmmlllllllllmmlllllllllllkkkjjjjjjjjjiiiiiiiiiiiiiiiiiiiiiiiiiiiiijjjjjkkllllllllllmlnnnnnnnononnnnprqsqrqqqppqnmmlllllmkkjjjjjkklkjjijijjiijkjkiiihhiii
(PID.TID 0006.0001) //    274 mnmmmmlmmmmmmmmmmmmmmmmmmmmmmnoqrtvwtpomlllllllllllllkkklkkkkkkklllkkllllmmlfemtx+...................................................................................................................++++zwussrqpoonnmmmmllllllkklllllllllllkkkkjjjjjjiiiiiiiiiiiiiiiiiijiiiiiiiiiiiiiijjjjklkkkklllllmnnnnnnnnnnnpopppqqqspspppnnnnnlnmlllljjkkklkjjkjkmjljjkjjkkjiiiiiiiii
(PID.TID 0006.0001) //    273 mnmmmmmmmmmmmmmmmmmmmmmmmmmmnoqrvuutponmlllllllllllllkkkkkkkkkllllkkknllmmmkeemsx+...................................................................................................................+++++wtsrrqponnnnnrmmlllllkkkkkklllllllkkkjjjjjjjiiiiiiiiiiihhhhhhhgggghhhhhhiiiiijjjjjjjjkllllllmnnnnnnnnnooopoopqpqqqpppqpqnmmlmllllllkllkjjjjjjjkkkjjijijiijiiiiiiii
(PID.TID 0006.0001) //    272 mnmmmmmmmmmmmmmmmmmmmmmmmmnnopsutrqponmlllllllllllllllkkkkkkklllllkkllmmmmmkeelty...................................................................................................................+++++zwtsrrqpoooonnnmmmllllllkkkllllllllkkkjjjjjjjjiiiiiiiiihhhhhhhhhhhhhhhhhhhijjjjjjjjklkkklllllmnnnnnnnnnnnnnopoqsqrqpqqpnonmlllllllllkkjjjjjjjkjjjjjiiiiiiiiiiiiiiii
(PID.TID 0006.0001) //    271 mmmmmmmmmmmmmmmmmmmmmmmmmmmnpqsuspponnmlllllllllllllllllkklllllllkkllmnnommkeemuz.................................................................................................................+++++++ywtrrrqppqvpnnmmmmllllllkklllllllllkkkjjjjjjjjiiiiiiiihhhhhhhhhhhhhgghhhhiijjjjjjjjjjjkllllllmmnnnnnnnnnppqqrqqrqrpoppnnmllllllllllkjjjjjjjkjjjjjjjiijiiijiiiiiiiii
(PID.TID 0006.0001) //    270 mmmmmmmmnnmmmmmmmmmmmmmmmmmmopqstponnmmlllllllllllllllllllllllllllllmopppnmjeemuz................................................................................................................++++++zywtsrrqqpppponnmmmmmmmmllkkkkkkllllkkkjjjjjjjjjjiiiiiiihhhhhhhhhhhhhhhhhhiijjjjjjjjjkklkllllllmmnnnnnnnoooopqrqrqonnnnnnnmmmmllllllkkjjjjjjjjjjijjiiiiiiiiiiiiiiiiii
(PID.TID 0006.0001) //    269 mmmmmnnnnnnnnnmmmmmmmmmmmlmmopqtpponmmmllllllllllllllllllllllllllllmnoqpommjdgnvz.........................................................................................................+.++...+++++zxvtrrqqqppooonnnmmmmmmmmlllkkjjjkkkkkkkjjjijjjjjjiiiiiiihhhhhhhhhhhhhhhhhiijjjjjjjjjjklllllllllmmnnnnnnooopppopopppoopooonmllmllllllkkjjjjjjjjjjiiiiiiiiiiihhhhhiiiii
(PID.TID 0006.0001) //    268 mmmmnnnnnnnnnnnmmmmmnnnmmlmnnsvrpppmlmmmlllllllllllllllllllllllllmmnnooonmlichpx......................................................................................................++++++++++++++++xusrrqqqqppoonnnnmmmmmmmmllllkkjjjkkkkjjjjjijjjjkkjiiiiiiihhhhhhhhhhhhhhhiiijjjjjjjjjjkllllllllllmnmnnnnnnnooqrpqpqppooonnmlllmllllllkkjjjjjjjjkjiiiijkihhhhhhhhjiiiij
(PID.TID 0006.0001) //    267 mmmnnnnnnnnnnnnnmmnnnnoppmmnnprpppollmmmmlllllllllllllllllllllllmnnnnnnnnnlichqz.....................................................................................................++++++++++++++++zvsrrqqqqppooonnnnmmmmmmqmmllllkkjjjjjjjjjjiiijjjjjjiiiiiiiiihhhhhhhhhhhhhiiijjjjjjjjjjkklllllllllllnnnoqopqpqsrrqopoooponnmmlllllllkkkjjjijjjjjjiiiiiiihhhhhhhhhiiiiii
(PID.TID 0006.0001) //    266 nnnnonnnnnnnnnonnoprttqrponnoppppomlmmmmmllllllllllllllllllllllmmmnnnnnnnnlhchqx+..................................................................................................++++++++++++++zz+zxtrrqqqqpppooonnnnmmmmmmmmmlllllkkkjjjjjjjiiiijjjjjjiiiiiiiiiiiiiiiiihhhhhiiiiijjjjjjjjlkkkjjkkllnnnnnoopooopoqpqqpppqoqonnnllmmmkkjjjjjkjjjkjiiiiiiihhhhhhihihihhhhiii
(PID.TID 0006.0001) //    265 nnnoooonnnnnnnnnorpqqqprponnponooomlmmmmmlllllllllllllllllllllnonnnnnnnmmmkhcirw................................................................................................++++++++++++zzzzyxyyxusrrqqqpppooonnnnnmmmmmmmmlllllllkkjjjjjjiiiiiiijjiiiiiiiiiikmiiiiiiihhhhhhiiiijjjjjjjjkkkkklmmmmnnnnnonnnnoqqrqrrqqppnnnnnonnmkkjkklkllljjjjjjijjjkkiijjiiiiiiihhhhijk
(PID.TID 0006.0001) //    264 nnnnonnnnnnnnnnnqpnnnnovonnnpnmmnmmmmmmmmmllllllllllllllllllllmmnoonmmmmmmlhckrw..............................................................................................+++++++++++zzzyyxwwvvvutrrqqqqpponnnnnnnmmmmmmmmmlllllllkkjjjjjjiiiiiiiiiiiiiiiiiiiiiijjjjiiihhhhhiiiijjjjjjjklllllmnnnnnnnnnnnopoqqqqqqqoooopooononllllmmmmlllljjjjjjjjjjkkjjjjihhhijjhjiiijj
(PID.TID 0006.0001) //    263 qnnnnnnnnonnnnmnmmmnpnoomnqrqonmmmmmmmmmmmmmmllllllllllllllllmmnoqpomlllmmkhdlsy.............................................................................................+++++++++++zyyxxwwvvuutssrrqqqppooonnnnnmmmmmmmmmmllllllkkkjjjjiiiiiiiiiiiiiiiiiiiiiiiijjiiiiiihhiiiiiijjjjjjjklllllmnnmnnnnnnnnoonoopqrrqqqqopnnnnnmmmmmmmnnnlljjjjkkjkjjkjijjiiiijjjjiiiiiiij
(PID.TID 0006.0001) //    262 ooonnnnnnonnnmmmmnpqvptunmnprponnonmmmmmmnnnmmllllllllllllllmnooppoommmmmmlieksy............................................................................................++++++++++++zzxvvvuuuttssrrqqqqpoooonnnnmmmmmmmmllllllkkkkkkjjjjiiiiiiiiiiiiiiiiiiiiiijjjjjjjjjjjkjiiijijjkkkkllllllmmmmmnnnnnnnnnoqpqrrsroppnnnnnnnnnmmmmmmmnmkjjkklkjjjjjljjjjiijjjjkihhiiiiii
(PID.TID 0006.0001) //    261 pooooooruqpnnnnoopppqprppnoppppprvpnmnmmmmnmmmllllllllmllmmmnppppopmmmmmmmlhfmty..........................................................................................++++++++++++++zyvuttttttssrrqqqqppooonnnnnmmmmmmmmmmllllkkkkkjjjjjjiiiiiiiiiiiiiiiiiiiijjjjjjjjjjjllkkjkljkkklklllllllllllmnnnnnnnoopqoppppppoqpppnnnnnmmmmnmlllkkljkkjjjjkkjjjjjjjjjjkkjiiiiiiiij
(PID.TID 0006.0001) //    260 uurrpopsvtsnnnoopoopppppoooopppptwrnmmmmmmmmmmmmmmmmmmmmmmmnoppqponmmmmmmmlhfmty..........................................................................................+++++++++++++zyxvuttttttssrrrqqqppoonnnnnnmmmmmmmmmlllllllllkkjjjjjiiiiiiiiiiiiiiiiiiiiiiiijjjjjjklllkkkkkkkklllllllllmmmmnnnnnnnnnnonppptqrqprqponnnnnmmmmmllllkkjjjkkklkkjjklkjjkkjjjjjjjjiiijjj
(PID.TID 0006.0001) //    259 rqoponnooopnnnonnnorsqpprpooopppsuonmmmmmmmmmmmmmmmmmmnmmmooqqpoonnmlmmnnolgfmty.......................................................................................+++++++++++++++zywvvuuttttssrrrrrqpponnnnnnnmmmmmmmmmllllllllllkkjjjjjjiiiiiiiiiiiiiiiiiiiiiijjkkkkkklllllllllllllllllllmnnmnnnnnnnnnoooopqrrqqropnnnnnnnnnnmlllllkkkllllllkjkkkllkjjkkjjjjjjjjjjjjjj
(PID.TID 0006.0001) //    258 ppppnnmmnnoonosoooqtwrpqptrqqsprupnnmmmmmnnmmmmnnmmnnmmnmnoppooonmllmmmmmmkghnv+.......................................................................................++++++++++++++yxvuuutttttsssrrrqqppooonnnmmmmmmmmmmmlllllllllllkkkjjjjjjiiiiiiiiiiiiiiiiiiijjjjkkllkkkkkkkkkkkkkkllllllmmnnnnnnnnnnnnpppoppqqqqoqppoqoonnnnmnmlllmlllllllkkjklllklkkkjjjjjkkkkjjjjjjj
(PID.TID 0006.0001) //    257 oonnmmnnnnoooopppsqqrpsvtqpppqppnnnnnmmmmnnnnmnonmmmmmmnnooooonmmmmmmmmmmmkfhpx........................................................................................++++++++++zzzywuuttttttssssrrrrqqponnnnmmmmmmmmmmmmllllllllllllllkkkkkjjjjiiiiiiiiiiiiiiiijjjkljkklkjjjjjjjkkkklllllllmmmnnnnnnnnnnnnnnoporrsqrqrqpopoonnmmmmmmmmmmmmmlllkklllkjkllkkkkjjjjkjkjjjjjjj
(PID.TID 0006.0001) //    256 nnnnnnnoooopppoopqronnnoonmmmmmnnnnoonnnntqonmnpnmmmmmnnoooonnmmmmmnnmmmmmkehpx+.......................................................................................+++++++++zzzxwutttttssssssrrrrrqqponnnnmmmmmmmmmllllllllllllllllllllllkjjjjjjjjjjiiiiiiijjjjjjjjjjjkkkkllllllllllllllmnmmnnnnnnnnnnnoqpqrqrrrqrpqqqpnnnnnnmmmmmmmmmmmmllllllllkjlllllllkkkklkkjjjjklj
(PID.TID 0006.0001) //    255 nnnnnnoooooppopqpoonnnnnnmmmmmnnoooppnnmnwxonnnnnnmmmmmnnnonmmmmmmnnnmmmmmjeiqy+.......................................................................................++++++++zzzywvttsssssssssssssrrrqpoonponmmmmllllllllllllllllllllllllllkjjjjjjjjjjiiiijjjjjjjjjjjjjjjkjklllllllllllllllllmnnnnnnnnnnoopopqprrrqqoooopoooonnmmmmmmnnnmmlllllllllkjlllllllllllkjjjjjjjkj
(PID.TID 0006.0001) //    254 nnnnnnnooppoopqpnoonnnmmmmnnnnnoooponnmmnoponnmmnmmmmmmmmmmmmmmmmmnnnmmmmlhdjsz.......................................................................................+++++++++zzyxvtssssssssssssssssrrqponnnnmmmmlllllllllllllllllllllllllkkjjjjjjjjjjjjjjkmkkllkjklkjkjjjkklllkkklllllllllllnnnnnnnnnnnnnnnnnnoprrqrqqqqpoopnnnnnnnnnnnmmmmmmlllllkkjjjjlllllllkjjjjjjjjjj
(PID.TID 0006.0001) //    253 onnnnnnopppppqponnnnnnmmmmnnnnnooooonnnmnnnonnnmmmmmmmmmmmnnnmmmmmnnnmmmmlgektz........................................................................................+++++++zzyxwusssrrrrrssssssrrrrqponoonmmmmllllllllllllllllllllllllllkjjjjjjjjjjjjjjjklkjjjjjjjjkkkkkjjjjjjjjklllllllmnmnnnnnnnnnnnnnnnnprprrqqrpqopooooononnnnnnmmmmmmmlllllllllkkkllllllkjjjjjjjjklj
(PID.TID 0006.0001) //    252 oononnoopqrqppoonnnnnnnmmmnnnnnnooonnnnnnnnnnnnmmmmmmmmmmnnonmmmmmnnnmmmmkfflu+........................................................................................+++++++zyxvutssrrrrrrsssssrrqqppoonnnnnmmllllllllllllllllmlllllllllkjjjjjjjjjjjjjjjjjkklljjjkkkkllllllkjlkjkllllllllmmmnnnnnnnnnnnnppqpprpqrqqpppppoqoppoonnnnnmmmmmllllllllmmmllllllllllllljjjjjjjjj
(PID.TID 0006.0001) //    251 oooooooopqqqpooonnnnnnnnnnnnnnnnnnnnnnnnnnnnnnnmmmmmmmmmmnnnnmmmmmmnmmmnmlfjqx.........................................................................................+++++zzzxvutssrrrrrrrrsssrrqqqppppoonmmmmmmmmmmlllllllllmmmmllllllkkjjjjjjjjjjjjjjjjjjjkjjjjjjjjjjjjjjjjjjjklllllllllllnnnnnnnnnnnnonnnnoporqsqqqppoooooonnnnnnnnmmmmmmmmmmmmmlllllllllllllkjjjjjjjjj
(PID.TID 0006.0001) //    250 ooooppoopqqqoooonnnnnnnnnnnnnnnnnnnnnnnnnnnnnnnmmmmmmmmmmmnnnmmmmmmomnnnmkgmry.........................................................................................+++++zyywutssrrqqqqqqrrrrrqqqqqqqqpnnmmmmmmmmmmmllllllllmmmmmmlllllllkkkkkkkjjjjjjjjjjjjkjjjljkjjjjjjjjjklkkllllllmmmnmnnnnnnnnnnnnnnoppqrqrrrpoooopooooooopponnnmmmmnmmmmmmmllllllllllllllkkjjjjjjjk
(PID.TID 0006.0001) //    249 ooppppppppqqoooonnnnnnnnnnnnnnnnnnnnnnnnnnnmmmnnmmmmmmmmmmnnmmmmmmnnmmmmliios+.........................................................................................+++++zzxvtssrrqqpppppqqrrqqqqqqqqqqonmmmmmmmmmmmmlllllllmmmmmmmmlllmnnlmllllkkjjjjjjjjjjjjjjkkkjjjjjjjjjkkkjklllllnnnnnnnnnnnnnnnoqpoooopooprrqqqooooppqqqoooonnnnnmmmmmmmmmmllmmllllllllllkkkkkjjjkl
(PID.TID 0006.0001) //    248 ppppqqppqppoooonnnnnnnnnoooonnnnnnnnnnnnnoommnnnmmmnnnmmmmnnmmmmmmmnmmmmkhkqw+.........................................................................................+++++zywvtsrrqqppooooppqqqqqqqqqqponmmmmmnnnnmmmmlllllllmmnnnnnnmmmnnnoonmlllkkkkjjjjjjjjjjjkkkjjjjjjjjjkkllllllllmmnnnnnnnnnnnnnoponnnpopopqoooppqpqqqqqppoonnnnnmmnmmmmmmmmllmmlllllllllllllllkkkkl
(PID.TID 0006.0001) //    247 qqppqpopppooooonnnnnnnnnoooonnnnnnnnnnnnnonnnnnnmmnnnnmmmmmmmmmmmmmmmmmlkgmsy+........................................................................................++++++zywussrrqpoooooooppoopppppoonnnnnnnnnnnnnmmmmmlllllmmnonnnnoooopqsrommmlmmmlkjjjjjjjjjjkkkjjjjjjjkkklllllllmmmmmnnnnnnnnnnnnnnnnnnnnnpqqqptrqrqqqqqqoponnnnnnmmmmmmmmmmmllllllllllllllllllllkkkl
(PID.TID 0006.0001) //    246 qqqppoooooooooonnnnnnnnnnnnnnnnnnnnnnnnnnnnnnnnnmnnnnnmmmmmmmmmmmmmmmmmlihouz........................................................................................+++++++zywusrrqpooooonnnnnnnnnonnnnnnnnnnnnnnnmmmmmmmmmllmmmnnnnoppqqqqsuutqonmnnmlkkjjjjjjjjjjjjjjjjjjkkkllllllllmmmmmmnnnnnnnnnnnnnnnnopqoqrsrrssrrqrqqpooooonnnnmmmmmmmmmmmmlllllllllllllllkkkkkllll
(PID.TID 0006.0001) //    245 pppppoooooooooonnnnnnnnnnnnnnnnnnnnnnnnnnnnnnnnnnnnnnmmmmmmmmmmmmmmmmmmlhjow........................................................................................++++++zzyywusrrqooooonnnnnnnnnnnnnnnnnnnnnnmmmmmmmmnnnnmmmmnnnnnpqqqqqqqrtuutsppqommllkkjjjjjjjjjjjjjjjkkklllllllllmmmmmmmnnnnnnnnnnnonnqqqqpqrtrrrrrqqqqqqpooonnnnnnnmmmmmmmmmmlllllllllllllkkkkkklllll
(PID.TID 0006.0001) //    244 pppooooooooooooonnnnnnnnnnnnnnnnnnnnnnnnnnnnnnnnnnnnnmmmmmmmmmmmmmmmmllkglqy.......................................................................................++++++zzxwwvtsrrqoooonnnnnnnnnnnnnnnnnnnnnmmmmmmmmnnooonnnnoppoooqqqonnoqqrssrrqqqommlllllkkjjjjjjjjjjjjkkkllllllllllmmmmmmmnnnnnnnnooooppqqqqqrqqqqqqqqqqqpooooonnnnnnmmmmmmmmmmlllllllllllllkkkklllllll
(PID.TID 0006.0001) //    243 oooooooooooooooonnnnnonnnnnnnnnnnnnnnnnnnnnnnnnnnnnmmmmmmmmmmmmmllllllligmsy+.....................................................................................+++++++zywvuttssrpooooonnnnmmmmnnnnnnnnnoomllllmmmnpqpppooopqrrqpoooonnnnoqqpopqqqpomlllllllkkkkkjjjjjjjkkkklllllllllllmmmmmmnnnnonnnoooooooopqqqqrrqrqqqpoooooooonnnnnnmmmmmmmmmmlllllllllkkllllkllllllll
(PID.TID 0006.0001) //    242 oooooooooooooooonnnnnnnnnonnnnnnnnnnnnnnnnnnnnnnnmmmmmlmmmmmmmmlllllllkihntx+....................................................................................+++++++zzyxvutssrqpooooonnnnmmmmnnnnnnnnoopmmlllmnoqssrrrqpqqsuurqpooonmnnnnnnnoppoonmmllllllllkkkkkkkkkkkkkllllllllllllllmmmmnnnnnnnoooooooopqqqqqrqqqqppqoooooonnnnnnnnnnmmmmmmmllllkkllkkkkkllllllllllmm
(PID.TID 0006.0001) //    241 oooooooooooooooonnnnnnnnnnnnnnnnnnnnnnnnnnnnnnnnmmmmmmlmmmmmmmllllllllkihotx+....................................................................................+++++++zyyxvttssrqppooooonnnnmmmmnnnnnnooppmmllmmopqrstwurrsstvvtrqpponnmmmnnnnoopoonmmlllllllllkkkkkkkkkkkkllllllllllllllmmmnnnnnnnnoooooooopqqqqqqqqrqqqqooooonnnoonnonnnmmmmlllllllkkkkkkkkkllllllllllno
(PID.TID 0006.0001) //    240 oooooooooooooooonnnnnnnnnnnnnnnnnnnnnnnnnnnnnnnmmmmmmmmmmmmlllllllllllkhhptz+...............................................................................+...++++++++zyxwvttssrqppppoooonnnnnmmnnnnnnoooonmmmnnoqrtuvxwuuuuuvwvurqqponnmmmmnnopppoonmllllllllllkkkkkkkkkkklllllllllllllmmmmnnnnnnnnooooooopqqqqqqqqqqqpooooooonnppoppqnnnmmmllllllllllllkkkjjllllkkkklmnq
(PID.TID 0006.0001) //    239 poooooooooooooooonnononnnnnnnnnnnnnnnnnnnnnnnnnmmmmmmmmmlllllllmmmmmmlkhjpt..................................................................................+++++++++++yxxwutssrqqpppppppoonnnnnnnnnnnnnnnommmnoopqstuvwwwwwvvwwwvtsqponnnnnnnopqqrrpnmlllllllllllkkkkkkkkklllllllllllllmmmmnnnnnnnnnoooooooopopqqqqqqqqoooooooooprssronmnnmmllllllllllllllkkkklllkkkllmmpr
(PID.TID 0006.0001) //    238 pooonoooooooonoonoonnnnnnnnnnnnnnnnnnnnnnnnnnnmmmmmmmmmlllllllmmmnmmmlkhjpv.................................................................................+++++++++++zxwvussrqqppppppppppoonnnnnnnnnnnnnmmmmnnopqqrsuvwxxxxwvvxxwvusqpoonnnnnnpqrsrpnmllllllllllllllllllllllllllllllllmmmmnnnnnnnnnooopooopqqqpqqqqqqqqpoooooooooqrqmmmmmmmmllllllllllllllllllllkkkllmnnop
(PID.TID 0006.0001) //    237 ooooooooooonoooonoonnnnnnnnnnnnnnnnnnnnnnnnnnnmmmmmmmmmllllllmmmmmmmmlkhjqu................................................................................++++++++++zywvtsrrqqpppppppppppppooonnnnnnnnnnnmmmmnopqqrsuwvvxxwxwuuxxxwwussqponmmmnoqqrrpnmlllllllllllllllllllllllllllllllmmmmnnnnnnnnonooorooopqqqqqqqqqqqqqppooooonnommmmllllllllllllllllllllllllllkkmlmnopoo
(PID.TID 0006.0001) //    236 pooooooooonnoononnnnnnnnnnnnnnnnnnnnnnnnnnnnnmmmmmmmmmmmlllllmmmmmnnnmkhkqv+...............................................................................+++++++++zxvtsrrqqppppppppppppppooooonnnnnnnnnnnmlmnoqqqrststuwxwwwtrvwxxwvvutrqommmnopqrrrqmlllllllllllllllllllllllllllllmmnnnnnnnnnnnnnnnoooooopqqqqqqqqqqqqqqoooonnnnmmmlllllllllllmmmmmlllllmmllllllkllmnppnm
(PID.TID 0006.0001) //    235 pooooooooonooonnnnnnnnnnnnnnnnnnnnnnnnnnnnmmmmmmmmmmmmmmmllmmmmmmnnnnmkhlqv+.............................................................................++++++++++zwutsrrqqppppppoopooooooooooonnnnnnnnnnnnlmnopqpqqrqqsuxxwxwwustvwuuutsrpnmmmnooqrsqnmlllkkkllllllllllllllllllllmmmmnnnnnnnnnnnnnooooooooppqqqqqqqqqoooooooooonmllllllllllllmmmmmmmmmmlmmmllllllmnmoqomll
(PID.TID 0006.0001) //    234 pooooooooonnonnnnnnnnnnnnnnnnnnnnnnnnnnnmnmmmmmmmmmmmmmmmmmmmmmmmnnnnmlglqt+.............................................................................+++++++++zxvtsrrqqppppooooooooooooooononnnnnnnnnnnmlmnnoonnoooprtvuuvvvsqrtusrrrrqonmmnnnoprrpnmlllkkkklllllllllllllllmmmmmmmnnnnnnnnnnnnnnnnnnnnnoooppqqqqqqqqooooooonnmmllllllllllmmmmmmmmmmmmmmmmllllmmopqoomlll
(PID.TID 0006.0001) //    233 opooooooooonnnnnnnnnnnnnnnnnnnnnnnnnnnnnnnmmmmmmmmmmmmmmmmmmmmmmnnnnnnkhlptz............................................................................+++++++++zzvutsrqqqpppooooonnoooooooonnnnnnnnnnnnnnllmmnnnmmnnoprssssstsrqqtrpqpnnnnnmmnnnopqqonmlllkkkkklllllllllllllmmmmmmmnnnnnnnnnnnnnnnoooooooppqqqqqrrqqqqooooonnnmmmlllllmmmmmmmmmmmmmmmmmmoomllmmmnoppnlllll
(PID.TID 0006.0001) //    232 ooooooooooonnnnnnnnnnnnnnnnnnnnnnnnnnnnnnnmmmmmmmmmmmmmmmmmmmmmnnnnnnnkilquz.............................................................................++++++++zxvtsrrqqppppoonnnnnnnnnnonnnnnnnnnnnmmmnnllmmmnmmmmnnopqrrrqqqqoprppvqnnnnnnnnnnopqqonmlllkkkklllljkjjkkkkllmnnnnnnnnnnnnnnnoooooooooooppqqqqqqqqrqqqqoooonnnnnmmmmmmmmmmmmmmmmmmmmmmmmnssmlmmmnnoonmmrrnl
(PID.TID 0006.0001) //    231 oooooooooooonnnnnnnnnnnnnnnnnnnnnnnnnnnnnnmmmmmmmmmmmnnmmmmmmmmmnnnnnmkinsuz............................................................................+++++++++ywvttsrqqpppooonnnnnnnnnnnnnnnnnnnnmmlllmmllmlmmmlllmnnpqrrqqpoonoonnonmnnnnnnnnnopqqonmmllkkkklllmlkkklkkkklmnnnnnnnnnnnnnnooooooooooopppqqqqqqqqqqqpoooooooonnnmmmmmmmmmmmmmmnnnnmmmnonnnmmmnnponnmmputpm
(PID.TID 0006.0001) //    230 oooooooopooonnnnnnnnnnonnnnnoonnnnnnnnnnnmmmmmmmmmmmmmmmmmllmmmnmmnpomjkrstz....................................................++......................++++++++zxwvutrqqpppooonnnnnnnmmmmmmmmmmmmmmllllllllllllmlllllnopqqqqponnnnnnmmmmnnnnnnnnnopqqpnnmlllkkklllllkkkkllllllmnnnnnnnnnnnnooooooooooopqpoqqqqqqrqrqqpooooooonnnnnmmmmmmmmnnmmnnnonmmmnnnnnnnnnnnnnnmnptuom
(PID.TID 0006.0001) //    229 ooopoooooooonnnnnnnnnnoooonnoonnnnnnnnnnnmmmmmmmmmmmmmmmmmllllmmmnrsomjmrsuz....................................................++....................++++++++++zxwvutrqqpppooonnnnnnmmmmmmmmmmmllllllllllllllllllllklmnnopqooonmmmmmmnnnnnnnnnnooopqrpnnmlllkkkllmmlllllllmnlmmmnnnnnnoonnnooooooooooooqpopqqqqqrqqqpooooponnnnnnnmmmmmmnnnnnmmmmmmmmmmnnnnnqronnnnnnoqtunl
(PID.TID 0006.0001) //    228 ooooponnnnonnnnnnnnnnooooonnonnnnnnnnnnnnnmmmmmmmmmnnmnmmlllllmmnpqpomikqux....................................................+++....................+++++++++++ywvusrqqpppooonnnnnnmmmmmmmllllllllllllllkkklllllllllllmmnoponmmmmmmmnnnnnnnnnoooqqqqpnmmlllkkkllmmmlllmmmnnmmmnnnnnnnnnnnnnnnnnnnnooopopopopqqqqqqqpqopoponnnnnnnmmmmmnnnnnnmmmmmmmmmnnnnnnrtpnoonnnoqqoml
(PID.TID 0006.0001) //    227 ooooonnnnnnnnnnnnnnnnoooonnnnnnnnnnnnnnnnnnnmnpopopstoromlllmmmnnnoonkjnstx....................................................++....................+++++++++++zxwvtrqqqppoooonnnnnnmmmmmmmllllllllllllkkkkklllllllllllmmnnnnmmmmmmmnnnnnnnnooqrrqqpoonmmmllkkkllmnmllmnnnnnnnnnnnnnnnnnnnnnnnnnnnooooopooqqqqqqqqqpoooooonnnnnnnnmmmmmnnnnnmmmmmmmmmnnnnnooooonooonnnmnmll
(PID.TID 0006.0001) //    226 oooonnnnnnnooonnnnnnnnnnnnnnnnnnnnoonoqsooqqptyxwppuqopnmmmmmmmnnnnnljjntwz+...................................................+....................+++++++++zzyxvutrqqqppoonnnnmmmmmmmmmmmmlllllllllllkkkkkkllllllllllllmmmmmmmmmmmnnnnnnmmnnpqssqpoonnmmmmllkllllllllmnnnnnnnnnnnnnnnnnnnnnnnnonnnoonopooqqqqqqqqqpppoonnnnnnnnmmmmmmmnnnnmmmmmmmmmnnnnnpqpoonnnooppnmllll
(PID.TID 0006.0001) //    225 oonnnnnnnnooooonnnnnnnnnnnnnnnnnoooonoturppqqssrpnnnnnmmmmmmmmmnnnnlkjkquy+....................................................++..................++++++++zzxwvutsrrqppoonnmmmmllmmmmmmmmllllllllllllkkkkkkkllllllllllllllllllllmmmmmmmmmmmnnpqstqqoonnnnnnmllllllllllmnnnnnnnnnnnnnnnnnnnnnnooooooooooppoqqqqqqqqqpppponnnnnnnnmmmmmnnmmmmmmmmmmmmmnnnnoqsqonnnnnqusnmlllk
(PID.TID 0006.0001) //    224 onnnnnnnnoooooonnnnnnnnnnnnnnnnnooonnnooonnnnonnnmmmmmmmmmmmmmmnnnnlkjnswz......................................................+.................+++++++++zwuttsrrrqppoonnmmllllllllllllllllllllllkkkkkkkkkklllllllllllllllllllmmmnnmmmmmmmnoopqrrqpoonnnnnnnnnnnnnnnnnnnnnnnnnnnnnnnnnnnnnnnononoooooooopqqqqqqqqpooooooonnnnnnmmnnnnnmmmmmmmmmmmmmnnnnoqronnmmmnprpmllllk
(PID.TID 0006.0001) //    223 onnnnnnnnnoooooonnnnnnnnnnnnnnnnnnnnnnnnnnnnnnnnmmmmmnnnmmmmmmnnnmlkjmquwz.....................................................+++................++++++++zxvtsrrqqpooonnmmllllllkkkkkkkkkkkkkkkkkkkkkkkkkkkkkkkkklllllllllllllllllllllllllmmnoooonnnnnmnnnnnnnnnnnnnnnnnnnnnnnnnnnnnnnnnnnnnnonooooopopoqqqqqqqqqpoooooooonnnnnnnnnnnnnmmmmmmmmmmmmmnoooprsqnmmmllopmmlllkk
(PID.TID 0006.0001) //    222 oonnnnnnnnoooooonnnnnnnnnnnnnnnnnnnnnnnnnnmnnnnmmmmmmnnnnmmmnnmmmmkklptwwz......................................................++...++.........+++++++++zxvutrqqppoonnmmllllklkkkkkkkkkkkkkkkkkkkkkkkkkkkkkkkkkkkklllllllllllllllllllllllmmmnnnnnnmllmlmnnnnnnnnnnnnnnnnnnnnnnnnnnnnnnnnnnnnnoooooooooppqqqqqqqqqpooonnnnnnnnnnnnnnnnnnmmmmmmmmmmmmnstppsttommmnmlllllllkkk
(PID.TID 0006.0001) //    221 nonnnnnnnnnooooonnnnnnnnnnnnnnnnnnnnnnnnmmmnnnnmmmmmmnnnnnmmmmmnmlkkpruxz+.......................................................+++..++.+++++.++++++++++ywutsrqpoonnmmlllkkkkkkkkkkkkkkkkkkkkkkkkkkkkkkkkkkkkkkkkkkkllllllllllmmmlllllllllmmoooooopppommonnnnononnnnnnnnnnnnnnnnnnnnonnnnnnnnnnnnnoopppoqqqqqqqqppooooonnnnnnnnnnnnnnnnmmmmmmmmmmmnrqsqqsrommmmnmllmmmlkkkk
(PID.TID 0006.0001) //    220 nnnnnnnnnnnnooooonnnnnnnnnnnnnnnnnnnonnnmmmnnnnnnnnmmnnnnnmmmmmmmkklrtwy+..........................................................+++++++++++++++++++++zwutsrqpoonnmmlllkkkkkkkkkkkkkkkkkkkjjjjjjkkkkkkkkkkkkkkkkkkkkllllllllmmmmmlllllllllmmnmmnponnlmmnnnnnnnnnnnnnnnnnnnoooonnooooonnmmmmmmllnnnoqqqqqqpoonnnnnnnnnnnnnnnnnnnnnnnnnnmmmmmoqnnnnoqqqqppnmmmmmmllllllkkkkk
(PID.TID 0006.0001) //    219 nnnnnnnnnnnnooooonnnnnnnnnnnnnnnnnnnnnnnnnnnnnnnnnnnnnnnnnnmmmmmmkkosvzz.............................................................+++++++++++++++++zzwutsrqpponnmmllkkkkkkkkkkkkkkkkkkjjjjjjjjjjjjkkkkkkkkkkkkkkkkkkkllllllllmmnnnmllllllllllmmmmlllmmnnnnnnnnnnnnnnnnnnnnnnnnnoooponnmmlmmnnnnnoqqqqqqqppooooonoponnnnnnnnnnnnnnnnnnnnnnooonnnoprtrqommllmmmlllkkkkkkkkk
(PID.TID 0006.0001) //    218 nnnnnnnnnnnnooooonnnnnnnnnnnnnnnnnnnnnnnnnnnnnnnnnnnnnnnnnnmmmmmljkruy++.............................................................+++++++++++++++++zyvtsrqqponnmmlllkkkkkkkkkkkkkkkkkjjjjjjjjjjjjjjjkkkkjjjjkkkkkkkkkkkkkkllllllllllllllllllllmnnmmmmnnnnnnnnnnnnnnnnnnnnnnnnnoooopooooopoppnnqrqtrrqqqpopqooqoopqonnnnnnnnnnnnnnnnnnnnnnnnnnnnqpppqqonmlllllllkkkkkkkkkk
(PID.TID 0006.0001) //    217 nnnnnnnnnnnnoooonnnnnnnnnnnnnnnnnnnnnnnnnnnnnnnnnnnnnnnnnnnmmmmlkjmtxz++............................................................+++++++++++++++++zyvtsrqqponnmmlllkkkkkkkkkkkkkkkjjjjjjjjjjjjjjjjjjjjjjjjjjjkkkkkkkkkkkkkklllllllllllllllllllmnmmmmmnnnmmmmmnnnnnnnnnnnnnnnnnonnopoopppqpqqpqqrqsrqqqqooopoopoooonnnnnnnnnmmnnnnnnnnnnnnnmnonnnnnnopommlllllllkkkkkkkkkk
(PID.TID 0006.0001) //    216 nnnnnnnnnnnnnooonlmnnnnnnnnnnnnnonnnnnnnnnnnnnnnnnnnnnnnnnnnmmmlklqwzz+.............................................................++++++++++++++++zywtsrqpponnmmlllkkkkkkkkkkkkjjjjjjjjjjjjjjjjjjjjjjjjjjjjjjjjkkkkkkkkkkkkklllllllllllmmmmlllllmmmmmmmmmmmmmmmmmmmnnnnnnnnnnnnnnnnnnnnnoooppqqqqqqqqqqqppopppoooooonnnnnnnmmmmnnmmnnnnnonnnnmmllmmnnnnmmllllllkkkkkkjjjjj
(PID.TID 0006.0001) //    215 nnnnnnnnnnnnnnommnnnnnnnnnnnnnnoonnnnnnnnnnnnnnnnnnnnnnnnnnnnmmllnty+++..............................................................++++++++++++++zyvtsrqpponnmmlllkkkkkkkkkkjjjjjjjjjjjjjjjjjjjjjjjjjjjjjjjjjjjjjkkkkkkkkkkllllllllllllmmmmlllllmlllllmmmmmmmmmmmmmmnnnnnnnnnnnnnonnnnoooooopqqqqqqqqqqqqqppppooooooooonnnnmmmmmnnnnnooopsonnmmmllmmmmmmmllllllkkkjjjjjjjj
(PID.TID 0006.0001) //    214 nnnnnnnnnnnnnnnnnnnnnnnnnnnnnnnnnnnnnnnnnnnnnnnnnnnnmmmnnnnnnnmlloux++.................................................................+++++++++++zywutrqpponnmmllkkkkkkkkkkjjjjjjjjjjjjjjjjjjjjjjjjjjjjjjjjjjjjjjjjkkkkkkkkkkllllllllllmmmmmlllllllllllllllllllmmmmmmmnnnnnnnnnnnnnnnnnnnnnnnoopopqqqqqqqqpopopooooooopponnnmmmnnnnnoooooqrnnonnmmnnnmmmmmlllkkkjjjjjjjjjjj
(PID.TID 0006.0001) //    213 nnnnnnnnnnnnnnnnnnnnnnnnnnnnnnnnnnnnnnnnnnnnnnnnnnnmmmmmnnnnnmllmswz++.................................................................+++++++++zzywutrppponnmmllkkkkkkjjjjjjjjjjjjjjjjjjjjjjjjjjjjjjjjjjjjjjjjjjjjjjkkkkkkkkkklllklllkllmmmlllllmmllllllllllllllllmmmmnnnnnnnnnnnnnnnonnnnonnooqqqqqqqqqqqqqqpqqpoooooppponnnnnnnnoooooonnnnqnnnonnnnonnmmmlkkjjjjjjjjjjkmj
(PID.TID 0006.0001) //    212 onnnnnnnnnnnnnnnnnnnnnnnnnnnnnnnnnnnnnnnnnnnnnnnnnmmmmmmmnnnnmllotx++.................................................................+++++++++zzywvtqqpoonnmmllkkkkkjjjjjjjjjjjjjjjjjjjjjjjjjjjjjjjjjjjjjjjjjjjjjjjjjkkkkkkkkkkllklllklllllllllmmmllllllllkklllllllmmmnnnnnnnnnnnnnnnnnnnonnnnooppqqqqqqqqqqqqqqqqpqppqxponnnnoooooooooonqqnnnnnonnnoooonnmmmmonllkkmkjjjjj
(PID.TID 0006.0001) //    211 ooooonnnnnnnnnnnnnnnnnnnnnnnnnnnnnnnnnnnnnnnnnnnnnmmmmmmmnnnmmllotx+.................................................................+++++++++zzyxwwuqpoonnmmllkkkkjjjjjjjjjjjjjjjjjjjjjjjjjjjjjjjjjjjjjjjjjjjjjjjjjjjkkkkkkkkkkkkkllllllllllllmnonnmllllkkkkkklllllmmmnnnnnnnnnnnnnnnnnnnnnnooppqqqqqqqqqqqqqqqqqqqqqruqooooooooooooooppqqonnnooooooooonnoompoqomllllkjjjjj
(PID.TID 0006.0001) //    210 ooooooonnnnnnnnnnnnnnnnnnnnnnnnnnnnnnnnnnnnnnnnnnnmmmmmmmnnnmlllquy+................................................................+++++++++zzyxxwurpoonnmmllkkkjjjjjjjjjjjjjjjjjjjjjjjjjjjjjjjjjjjjjjjjjjjjjjjjjjjjjkkkkkkkkkkkkkkllkklllllllnppponmnmllkklkklllllmmmnnnnnnnnnnnnoonoooooooopqqqqqqrqqqqqqqqqqqqqqqqrroooooooooooooopqqponnpppppppooonnnnnnnnnmllkkjjjjjjj
(PID.TID 0006.0001) //    209 oooooooonnnnnnnnnnnnnnnnnnnnnnnnnnnnnnnnnnmmmmnnnmmmmmmmnnnnmlllqwz+...............................................................++++++++++zyyxvuspoonnmmllkkjjjjjjjjjjjjjjjjjjjjjjjjjjjjjjjjjjjjjjjjjjjjjjjjjjjjjjjkkkkkkjjkkkkkkkkkklllllllmmnoonnonlllllllllmmlmmnnnnnnnnnnnnnnnnnnnnnooooppppqqqqqqqqqqqqqqqqqqqrrppppppppopoopppqooonorrppppoonnnnmmllllllkkkjjjjjjjj
(PID.TID 0006.0001) //    208 ooooooooooonnonnnnnnnnnnnnnnnnnnnnnnnnnnnmmmmmmmnmmmmmmnnnnnnmllrxy+...............................................................++++++++++zyxxwvronnmmmllkkjjjjjjjjjjjjjjjjjjjjjjjjjjjjjjjjjjjjjjjjjjjjjjjjjjjjjjjjkkkkkkjjjjjkkkkkkkllllllllllmnnnqnomllmlllnqnlmmnnnnnnnnnnnnnnnnnnnnoooooooqqqqqqqqqqqqqqqqqqqqqqqqqqqqqqqqqppqqqpqqpppqppponnnnnnmmllllllkjjjjjjjjjjj
(PID.TID 0006.0001) //    207 ooooooooooonnnnnooonnnnnnnnnnnnnnnnnnnnnnmmmmmmmmmmmmnnnnnnnnmlmrw++.............................................................+++++++++++zzyxxwuronmmllkkkjjjjjjjjjjjjjjjjjjjjjjjjjjjjjjjjjjjjjjjjjjjjjjjjkkjjjjjjkkkkkkkjjjjjjjkkkjkllllllllkklllnoonmmopnmmqomlmmnnnnnnnnnnnnnnnnoonoooooooopqqqrqqqqqqqqqqqqqqqqqqqqqqqqqqqqqqqpqqqqppppppooooonnnmmlllllllkjjjjjjjjjj
(PID.TID 0006.0001) //    206 oooooooooooonnnnoonnnnnnnnnnnnnnnnnnnnnnnmmmmmmnmmmmnnnnmmmmmllptwz+..........................................................++++++++++++++zzyxxwupnnmllkkkjjjjjiiiiiiiijjjjjjjjjjjjjjjjjjjjjjjjjjjjjjjjjjjjkkkjjjjjjkkkkkkjjjjjjjjkjkjlllllllllklllmmnpmmnnmllmmmmmmnnnnnnnnnnnnnnnnnnnnoooooppqqqrtrtqssqqqqqqqqqqqqqqqrrrsqsqqqqpppppqpppppppooonnnnnmlllllllkjjjjjjjjjj
[...]
(PID.TID 0006.0001)  cg2d: iter=   869 ; resid.=  2.67217332239867E+06
(PID.TID 0006.0001)  cg2d: iter=   870 ; resid.=  2.66653831959904E+06
(PID.TID 0006.0001)  cg2d: iter=   871 ; resid.=  2.65830466918863E+06
(PID.TID 0006.0001)  cg2d: iter=   872 ; resid.=  2.66583016966430E+06
(PID.TID 0006.0001)  cg2d: iter=   873 ; resid.=  2.63879272213494E+06
(PID.TID 0006.0001)  cg2d: iter=   874 ; resid.=  2.61486421524477E+06
(PID.TID 0006.0001)  cg2d: iter=   875 ; resid.=  2.59508419276726E+06
(PID.TID 0006.0001)  cg2d: iter=   876 ; resid.=  2.59020475595988E+06
(PID.TID 0006.0001)  cg2d: iter=   877 ; resid.=  2.59752388881384E+06
(PID.TID 0006.0001)  cg2d: iter=   878 ; resid.=  2.61688335563182E+06
(PID.TID 0006.0001)  cg2d: iter=   879 ; resid.=  2.64189975725943E+06
(PID.TID 0006.0001)  cg2d: iter=   880 ; resid.=  2.62599992427263E+06
(PID.TID 0006.0001)  cg2d: iter=   881 ; resid.=  2.59325432456233E+06
(PID.TID 0006.0001)  cg2d: iter=   882 ; resid.=  2.57156519093954E+06
(PID.TID 0006.0001)  cg2d: iter=   883 ; resid.=  2.56013557588243E+06
(PID.TID 0006.0001)  cg2d: iter=   884 ; resid.=  2.55564202104168E+06
(PID.TID 0006.0001)  cg2d: iter=   885 ; resid.=  2.55463693723556E+06
(PID.TID 0006.0001)  cg2d: iter=   886 ; resid.=  2.51831389390535E+06
(PID.TID 0006.0001)  cg2d: iter=   887 ; resid.=  2.50519523968012E+06
(PID.TID 0006.0001)  cg2d: iter=   888 ; resid.=  2.49214588509787E+06
(PID.TID 0006.0001)  cg2d: iter=   889 ; resid.=  2.49940426360199E+06
(PID.TID 0006.0001)  cg2d: iter=   890 ; resid.=  2.48275351147212E+06
(PID.TID 0006.0001)  cg2d: iter=   891 ; resid.=  2.45220374286406E+06
(PID.TID 0006.0001)  cg2d: iter=   892 ; resid.=  2.40423384948701E+06
(PID.TID 0006.0001)  cg2d: iter=   893 ; resid.=  2.37296069085618E+06
(PID.TID 0006.0001)  cg2d: iter=   894 ; resid.=  2.34766889368837E+06
(PID.TID 0006.0001)  cg2d: iter=   895 ; resid.=  2.32194843292071E+06
(PID.TID 0006.0001)  cg2d: iter=   896 ; resid.=  2.29873277539589E+06
(PID.TID 0006.0001)  cg2d: iter=   897 ; resid.=  2.29010063989153E+06
(PID.TID 0006.0001)  cg2d: iter=   898 ; resid.=  2.27316575676588E+06
(PID.TID 0006.0001)  cg2d: iter=   899 ; resid.=  2.25946616359406E+06
(PID.TID 0006.0001)  cg2d: iter=   900 ; resid.=  2.26548260807955E+06
(PID.TID 0006.0001)  cg2d: iter=   901 ; resid.=  2.25850377217139E+06
(PID.TID 0006.0001)  cg2d: iter=   902 ; resid.=  2.24854451081959E+06
(PID.TID 0006.0001)  cg2d: iter=   903 ; resid.=  2.22563572280677E+06
(PID.TID 0006.0001)  cg2d: iter=   904 ; resid.=  2.19752734979786E+06
(PID.TID 0006.0001)  cg2d: iter=   905 ; resid.=  2.16094458984056E+06
(PID.TID 0006.0001)  cg2d: iter=   906 ; resid.=  2.13508968149549E+06
(PID.TID 0006.0001)  cg2d: iter=   907 ; resid.=  2.11340166870868E+06
(PID.TID 0006.0001)  cg2d: iter=   908 ; resid.=  2.09423084099272E+06
(PID.TID 0006.0001)  cg2d: iter=   909 ; resid.=  2.06905312145407E+06
(PID.TID 0006.0001)  cg2d: iter=   910 ; resid.=  2.04747953544458E+06
(PID.TID 0006.0001)  cg2d: iter=   911 ; resid.=  2.02100883150122E+06
(PID.TID 0006.0001)  cg2d: iter=   912 ; resid.=  2.01936786613648E+06
(PID.TID 0006.0001)  cg2d: iter=   913 ; resid.=  2.00547457413164E+06
(PID.TID 0006.0001)  cg2d: iter=   914 ; resid.=  1.97592055262279E+06
(PID.TID 0006.0001)  cg2d: iter=   915 ; resid.=  1.96137406882681E+06
(PID.TID 0006.0001)  cg2d: iter=   916 ; resid.=  1.94385039890955E+06
(PID.TID 0006.0001)  cg2d: iter=   917 ; resid.=  1.92160143921108E+06
(PID.TID 0006.0001)  cg2d: iter=   918 ; resid.=  1.91608078412504E+06
(PID.TID 0006.0001)  cg2d: iter=   919 ; resid.=  1.87844578688174E+06
(PID.TID 0006.0001)  cg2d: iter=   920 ; resid.=  1.84724588562204E+06
(PID.TID 0006.0001)  cg2d: iter=   921 ; resid.=  1.81658054970249E+06
(PID.TID 0006.0001)  cg2d: iter=   922 ; resid.=  1.80877423551718E+06
(PID.TID 0006.0001)  cg2d: iter=   923 ; resid.=  1.79399922527227E+06
(PID.TID 0006.0001)  cg2d: iter=   924 ; resid.=  1.78527799033031E+06
(PID.TID 0006.0001)  cg2d: iter=   925 ; resid.=  1.76679639223742E+06
(PID.TID 0006.0001)  cg2d: iter=   926 ; resid.=  1.77431897104751E+06
(PID.TID 0006.0001)  cg2d: iter=   927 ; resid.=  1.78291024774402E+06
(PID.TID 0006.0001)  cg2d: iter=   928 ; resid.=  1.77112794526532E+06
(PID.TID 0006.0001)  cg2d: iter=   929 ; resid.=  1.75754119208596E+06
(PID.TID 0006.0001)  cg2d: iter=   930 ; resid.=  1.72752776925075E+06
(PID.TID 0006.0001)  cg2d: iter=   931 ; resid.=  1.70492551062291E+06
(PID.TID 0006.0001)  cg2d: iter=   932 ; resid.=  1.67458356162833E+06
(PID.TID 0006.0001)  cg2d: iter=   933 ; resid.=  1.66582787383019E+06
(PID.TID 0006.0001)  cg2d: iter=   934 ; resid.=  1.65648965623605E+06
(PID.TID 0006.0001)  cg2d: iter=   935 ; resid.=  1.64002676824316E+06
(PID.TID 0006.0001)  cg2d: iter=   936 ; resid.=  1.60988510387989E+06
(PID.TID 0006.0001)  cg2d: iter=   937 ; resid.=  1.59111298556624E+06
(PID.TID 0006.0001)  cg2d: iter=   938 ; resid.=  1.57866060991348E+06
(PID.TID 0006.0001)  cg2d: iter=   939 ; resid.=  1.55305803310666E+06
(PID.TID 0006.0001)  cg2d: iter=   940 ; resid.=  1.51871348754126E+06
(PID.TID 0006.0001)  cg2d: iter=   941 ; resid.=  1.51077115623220E+06
(PID.TID 0006.0001)  cg2d: iter=   942 ; resid.=  1.48664765901264E+06
(PID.TID 0006.0001)  cg2d: iter=   943 ; resid.=  1.46317835190125E+06
(PID.TID 0006.0001)  cg2d: iter=   944 ; resid.=  1.43794311576790E+06
(PID.TID 0006.0001)  cg2d: iter=   945 ; resid.=  1.41960453048212E+06
(PID.TID 0006.0001)  cg2d: iter=   946 ; resid.=  1.41658927941796E+06
(PID.TID 0006.0001)  cg2d: iter=   947 ; resid.=  1.41205742540268E+06
(PID.TID 0006.0001)  cg2d: iter=   948 ; resid.=  1.38565355686891E+06
(PID.TID 0006.0001)  cg2d: iter=   949 ; resid.=  1.36384694952399E+06
(PID.TID 0006.0001)  cg2d: iter=   950 ; resid.=  1.33953822942524E+06
(PID.TID 0006.0001)  cg2d: iter=   951 ; resid.=  1.31342680634932E+06
(PID.TID 0006.0001)  cg2d: iter=   952 ; resid.=  1.30296080203856E+06
(PID.TID 0006.0001)  cg2d: iter=   953 ; resid.=  1.28382304840774E+06
(PID.TID 0006.0001)  cg2d: iter=   954 ; resid.=  1.28522494691180E+06
(PID.TID 0006.0001)  cg2d: iter=   955 ; resid.=  1.28049146031495E+06
(PID.TID 0006.0001)  cg2d: iter=   956 ; resid.=  1.26872676046325E+06
(PID.TID 0006.0001)  cg2d: iter=   957 ; resid.=  1.26419704336786E+06
(PID.TID 0006.0001)  cg2d: iter=   958 ; resid.=  1.27106185553148E+06
(PID.TID 0006.0001)  cg2d: iter=   959 ; resid.=  1.26887232841342E+06
(PID.TID 0006.0001)  cg2d: iter=   960 ; resid.=  1.26069062959018E+06
(PID.TID 0006.0001)  cg2d: iter=   961 ; resid.=  1.26696147179948E+06
(PID.TID 0006.0001)  cg2d: iter=   962 ; resid.=  1.25892634282041E+06
(PID.TID 0006.0001)  cg2d: iter=   963 ; resid.=  1.25438750297441E+06
(PID.TID 0006.0001)  cg2d: iter=   964 ; resid.=  1.24501611001497E+06
(PID.TID 0006.0001)  cg2d: iter=   965 ; resid.=  1.22282696325713E+06
(PID.TID 0006.0001)  cg2d: iter=   966 ; resid.=  1.21592542042871E+06
(PID.TID 0006.0001)  cg2d: iter=   967 ; resid.=  1.20742423102019E+06
(PID.TID 0006.0001)  cg2d: iter=   968 ; resid.=  1.20882396125606E+06
(PID.TID 0006.0001)  cg2d: iter=   969 ; resid.=  1.20613443953209E+06
(PID.TID 0006.0001)  cg2d: iter=   970 ; resid.=  1.19251697385275E+06
(PID.TID 0006.0001)  cg2d: iter=   971 ; resid.=  1.15773604262019E+06
(PID.TID 0006.0001)  cg2d: iter=   972 ; resid.=  1.14797647373702E+06
(PID.TID 0006.0001)  cg2d: iter=   973 ; resid.=  1.14545506145123E+06
(PID.TID 0006.0001)  cg2d: iter=   974 ; resid.=  1.13791735959969E+06
(PID.TID 0006.0001)  cg2d: iter=   975 ; resid.=  1.11503671943579E+06
(PID.TID 0006.0001)  cg2d: iter=   976 ; resid.=  1.08891755726374E+06
(PID.TID 0006.0001)  cg2d: iter=   977 ; resid.=  1.06784966449573E+06
(PID.TID 0006.0001)  cg2d: iter=   978 ; resid.=  1.04996200672717E+06
(PID.TID 0006.0001)  cg2d: iter=   979 ; resid.=  1.02902599448472E+06
(PID.TID 0006.0001)  cg2d: iter=   980 ; resid.=  1.01382847598587E+06
(PID.TID 0006.0001)  cg2d: iter=   981 ; resid.=  9.95947360325246E+05
(PID.TID 0006.0001)  cg2d: iter=   982 ; resid.=  9.80658535299439E+05
(PID.TID 0006.0001)  cg2d: iter=   983 ; resid.=  9.56958122183700E+05
(PID.TID 0006.0001)  cg2d: iter=   984 ; resid.=  9.47676033723337E+05
(PID.TID 0006.0001)  cg2d: iter=   985 ; resid.=  9.40536941317958E+05
(PID.TID 0006.0001)  cg2d: iter=   986 ; resid.=  9.43692815151474E+05
(PID.TID 0006.0001)  cg2d: iter=   987 ; resid.=  9.42707894868061E+05
(PID.TID 0006.0001)  cg2d: iter=   988 ; resid.=  9.41348870355143E+05
(PID.TID 0006.0001)  cg2d: iter=   989 ; resid.=  9.42312780557638E+05
(PID.TID 0006.0001)  cg2d: iter=   990 ; resid.=  9.38905895024618E+05
(PID.TID 0006.0001)  cg2d: iter=   991 ; resid.=  9.28366917430278E+05
(PID.TID 0006.0001)  cg2d: iter=   992 ; resid.=  9.14376984078587E+05
(PID.TID 0006.0001)  cg2d: iter=   993 ; resid.=  9.03992593763330E+05
(PID.TID 0006.0001)  cg2d: iter=   994 ; resid.=  8.94511166608843E+05
(PID.TID 0006.0001)  cg2d: iter=   995 ; resid.=  8.83154000868044E+05
(PID.TID 0006.0001)  cg2d: iter=   996 ; resid.=  8.63884688934809E+05
(PID.TID 0006.0001)  cg2d: iter=   997 ; resid.=  8.35044027214630E+05
(PID.TID 0006.0001)  cg2d: iter=   998 ; resid.=  8.17240348477801E+05
(PID.TID 0006.0001)  cg2d: iter=   999 ; resid.=  7.99452410695555E+05
(PID.TID 0006.0001)  cg2d: iter=  1000 ; resid.=  7.79140771184438E+05
(PID.TID 0006.0001) // =======================================================
(PID.TID 0006.0001) // Model current state
(PID.TID 0006.0001) // =======================================================
(PID.TID 0006.0001) 
(PID.TID 0006.0001) // =======================================================
(PID.TID 0006.0001) // Begin MONITOR dynamic field statistics
(PID.TID 0006.0001) // =======================================================
(PID.TID 0006.0001) %MON time_tsnumber                =                     0
(PID.TID 0006.0001) %MON time_secondsf                =   0.0000000000000E+00
(PID.TID 0006.0001) %MON dynstat_eta_max              =   0.0000000000000E+00
(PID.TID 0006.0001) %MON dynstat_eta_min              =   0.0000000000000E+00
(PID.TID 0006.0001) %MON dynstat_eta_mean             =   0.0000000000000E+00
(PID.TID 0006.0001) %MON dynstat_eta_sd               =   0.0000000000000E+00
(PID.TID 0006.0001) %MON dynstat_eta_del2             =   0.0000000000000E+00
(PID.TID 0006.0001) %MON dynstat_uvel_max             =   0.0000000000000E+00
(PID.TID 0006.0001) %MON dynstat_uvel_min             =   0.0000000000000E+00
(PID.TID 0006.0001) %MON dynstat_uvel_mean            =   0.0000000000000E+00
(PID.TID 0006.0001) %MON dynstat_uvel_sd              =   0.0000000000000E+00
(PID.TID 0006.0001) %MON dynstat_uvel_del2            =   0.0000000000000E+00
(PID.TID 0006.0001) %MON dynstat_vvel_max             =   0.0000000000000E+00
(PID.TID 0006.0001) %MON dynstat_vvel_min             =   0.0000000000000E+00
(PID.TID 0006.0001) %MON dynstat_vvel_mean            =   0.0000000000000E+00
(PID.TID 0006.0001) %MON dynstat_vvel_sd              =   0.0000000000000E+00
(PID.TID 0006.0001) %MON dynstat_vvel_del2            =   0.0000000000000E+00
(PID.TID 0006.0001) %MON dynstat_wvel_max             =  -0.0000000000000E+00
(PID.TID 0006.0001) %MON dynstat_wvel_min             =  -0.0000000000000E+00
(PID.TID 0006.0001) %MON dynstat_wvel_mean            =   0.0000000000000E+00
(PID.TID 0006.0001) %MON dynstat_wvel_sd              =   0.0000000000000E+00
(PID.TID 0006.0001) %MON dynstat_wvel_del2            =   0.0000000000000E+00
(PID.TID 0006.0001) %MON dynstat_theta_max            =   2.0000000000000E+01
(PID.TID 0006.0001) %MON dynstat_theta_min            =   2.0000000000000E+01
(PID.TID 0006.0001) %MON dynstat_theta_mean           =   2.0000000000000E+01
(PID.TID 0006.0001) %MON dynstat_theta_sd             =   8.1712414612411E-14
(PID.TID 0006.0001) %MON dynstat_theta_del2           =   0.0000000000000E+00
(PID.TID 0006.0001) %MON dynstat_salt_max             =   3.0000000000000E+01
(PID.TID 0006.0001) %MON dynstat_salt_min             =   3.0000000000000E+01
(PID.TID 0006.0001) %MON dynstat_salt_mean            =   3.0000000000000E+01
(PID.TID 0006.0001) %MON dynstat_salt_sd              =   2.0605739337043E-13
(PID.TID 0006.0001) %MON dynstat_salt_del2            =   0.0000000000000E+00
(PID.TID 0006.0001) %MON dynstat_sst_max              =   2.0000000000000E+01
(PID.TID 0006.0001) %MON dynstat_sst_min              =   2.0000000000000E+01
(PID.TID 0006.0001) %MON dynstat_sst_mean             =   1.9999999999998E+01
(PID.TID 0006.0001) %MON dynstat_sst_sd               =   2.4584778657296E-12
(PID.TID 0006.0001) %MON dynstat_sst_del2             =   0.0000000000000E+00
(PID.TID 0006.0001) %MON dynstat_sss_max              =   3.0000000000000E+01
(PID.TID 0006.0001) %MON dynstat_sss_min              =   3.0000000000000E+01
(PID.TID 0006.0001) %MON dynstat_sss_mean             =   2.9999999999996E+01
(PID.TID 0006.0001) %MON dynstat_sss_sd               =   4.4231285301062E-12
(PID.TID 0006.0001) %MON dynstat_sss_del2             =   0.0000000000000E+00
(PID.TID 0006.0001) %MON forcing_qnet_max             =   0.0000000000000E+00
(PID.TID 0006.0001) %MON forcing_qnet_min             =   0.0000000000000E+00
(PID.TID 0006.0001) %MON forcing_qnet_mean            =   0.0000000000000E+00
(PID.TID 0006.0001) %MON forcing_qnet_sd              =   0.0000000000000E+00
(PID.TID 0006.0001) %MON forcing_qnet_del2            =   0.0000000000000E+00
(PID.TID 0006.0001) %MON forcing_qsw_max              =   0.0000000000000E+00
(PID.TID 0006.0001) %MON forcing_qsw_min              =   0.0000000000000E+00
(PID.TID 0006.0001) %MON forcing_qsw_mean             =   0.0000000000000E+00
(PID.TID 0006.0001) %MON forcing_qsw_sd               =   0.0000000000000E+00
(PID.TID 0006.0001) %MON forcing_qsw_del2             =   0.0000000000000E+00
(PID.TID 0006.0001) %MON forcing_empmr_max            =   0.0000000000000E+00
(PID.TID 0006.0001) %MON forcing_empmr_min            =   0.0000000000000E+00
(PID.TID 0006.0001) %MON forcing_empmr_mean           =   0.0000000000000E+00
(PID.TID 0006.0001) %MON forcing_empmr_sd             =   0.0000000000000E+00
(PID.TID 0006.0001) %MON forcing_empmr_del2           =   0.0000000000000E+00
(PID.TID 0006.0001) %MON forcing_fu_max               =   0.0000000000000E+00
(PID.TID 0006.0001) %MON forcing_fu_min               =   0.0000000000000E+00
(PID.TID 0006.0001) %MON forcing_fu_mean              =   0.0000000000000E+00
(PID.TID 0006.0001) %MON forcing_fu_sd                =   0.0000000000000E+00
(PID.TID 0006.0001) %MON forcing_fu_del2              =   0.0000000000000E+00
(PID.TID 0006.0001) %MON forcing_fv_max               =   0.0000000000000E+00
(PID.TID 0006.0001) %MON forcing_fv_min               =   0.0000000000000E+00
(PID.TID 0006.0001) %MON forcing_fv_mean              =   0.0000000000000E+00
(PID.TID 0006.0001) %MON forcing_fv_sd                =   0.0000000000000E+00
(PID.TID 0006.0001) %MON forcing_fv_del2              =   0.0000000000000E+00
(PID.TID 0006.0001) %MON trAdv_CFL_u_max              =   0.0000000000000E+00
(PID.TID 0006.0001) %MON trAdv_CFL_v_max              =   0.0000000000000E+00
(PID.TID 0006.0001) %MON trAdv_CFL_w_max              =   0.0000000000000E+00
(PID.TID 0006.0001) %MON advcfl_uvel_max              =   0.0000000000000E+00
(PID.TID 0006.0001) %MON advcfl_vvel_max              =   0.0000000000000E+00
(PID.TID 0006.0001) %MON advcfl_wvel_max              =   0.0000000000000E+00
(PID.TID 0006.0001) %MON advcfl_W_hf_max              =   0.0000000000000E+00
(PID.TID 0006.0001) %MON pe_b_mean                    =   0.0000000000000E+00
(PID.TID 0006.0001) %MON ke_max                       =   0.0000000000000E+00
(PID.TID 0006.0001) %MON ke_mean                      =   0.0000000000000E+00
(PID.TID 0006.0001) %MON ke_vol                       =   1.3390214028633E+18
(PID.TID 0006.0001) %MON vort_r_min                   =   0.0000000000000E+00
(PID.TID 0006.0001) %MON vort_r_max                   =   0.0000000000000E+00
(PID.TID 0006.0001) %MON vort_a_mean                  =  -1.3013328496589E-05
(PID.TID 0006.0001) %MON vort_a_sd                    =   8.0374144259079E-05
(PID.TID 0006.0001) %MON vort_p_mean                  =  -4.0285224932342E-05
(PID.TID 0006.0001) %MON vort_p_sd                    =   2.8329417776011E-03
(PID.TID 0006.0001) %MON surfExpan_theta_mean         =   0.0000000000000E+00
(PID.TID 0006.0001) %MON surfExpan_salt_mean          =   0.0000000000000E+00
(PID.TID 0006.0001) // =======================================================
(PID.TID 0006.0001) // End MONITOR dynamic field statistics
(PID.TID 0006.0001) // =======================================================
(PID.TID 0006.0001)   Seconds in section "ALL                    [THE_MODEL_MAIN]":
(PID.TID 0006.0001)           User time:   3.0935349483042955
(PID.TID 0006.0001)         System time:   8.6635996587574482E-002
(PID.TID 0006.0001)     Wall clock time:   4.2906022071838379
(PID.TID 0006.0001)          No. starts:           1
(PID.TID 0006.0001)           No. stops:           1
(PID.TID 0006.0001)   Seconds in section "INITIALISE_FIXED       [THE_MODEL_MAIN]":
(PID.TID 0006.0001)           User time:   8.5099998861551285E-002
(PID.TID 0006.0001)         System time:   2.0818000659346581E-002
(PID.TID 0006.0001)     Wall clock time:  0.19613909721374512
(PID.TID 0006.0001)          No. starts:           1
(PID.TID 0006.0001)           No. stops:           1
(PID.TID 0006.0001)   Seconds in section "THE_MAIN_LOOP          [THE_MODEL_MAIN]":
(PID.TID 0006.0001)           User time:   3.0084240883588791
(PID.TID 0006.0001)         System time:   6.5809996798634529E-002
(PID.TID 0006.0001)     Wall clock time:   4.0944459438323975
(PID.TID 0006.0001)          No. starts:           1
(PID.TID 0006.0001)           No. stops:           1
(PID.TID 0006.0001)   Seconds in section "INITIALISE_VARIA    [THE_MAIN_LOOP]":
(PID.TID 0006.0001)           User time:   3.0084120258688927
(PID.TID 0006.0001)         System time:   6.5802998840808868E-002
(PID.TID 0006.0001)     Wall clock time:   4.0944287776947021
(PID.TID 0006.0001)          No. starts:           1
(PID.TID 0006.0001)           No. stops:           1
(PID.TID 0006.0001)   Seconds in section "MAIN LOOP           [THE_MAIN_LOOP]":
(PID.TID 0006.0001)           User time:   3.0994415283203125E-006
(PID.TID 0006.0001)         System time:   9.9837779998779297E-007
(PID.TID 0006.0001)     Wall clock time:   3.8146972656250000E-006
(PID.TID 0006.0001)          No. starts:           1
(PID.TID 0006.0001)           No. stops:           1
(PID.TID 0006.0001) // ======================================================
(PID.TID 0006.0001) // Tile <-> Tile communication statistics
(PID.TID 0006.0001) // ======================================================
(PID.TID 0006.0001) // o Tile number: 000004
(PID.TID 0006.0001) //         No. X exchanges =              0
(PID.TID 0006.0001) //            Max. X spins =              0
(PID.TID 0006.0001) //            Min. X spins =     1000000000
(PID.TID 0006.0001) //          Total. X spins =              0
(PID.TID 0006.0001) //            Avg. X spins =       0.00E+00
(PID.TID 0006.0001) //         No. Y exchanges =              0
(PID.TID 0006.0001) //            Max. Y spins =              0
(PID.TID 0006.0001) //            Min. Y spins =     1000000000
(PID.TID 0006.0001) //          Total. Y spins =              0
(PID.TID 0006.0001) //            Avg. Y spins =       0.00E+00
(PID.TID 0006.0001) // o Thread number: 000001
(PID.TID 0006.0001) //            No. barriers =           6562
(PID.TID 0006.0001) //      Max. barrier spins =              1
(PID.TID 0006.0001) //      Min. barrier spins =              1
(PID.TID 0006.0001) //     Total barrier spins =           6562
(PID.TID 0006.0001) //      Avg. barrier spins =       1.00E+00
PROGRAM MAIN: Execution ended Normally
