(PID.TID 0000.0001) 
(PID.TID 0000.0001) // ======================================================
(PID.TID 0000.0001) //                      MITgcm UV
(PID.TID 0000.0001) //                      =========
(PID.TID 0000.0001) // ======================================================
(PID.TID 0000.0001) // execution environment starting up...
(PID.TID 0000.0001) 
(PID.TID 0000.0001) // MITgcmUV version:  checkpoint69i
(PID.TID 0000.0001) // Build user:        hodahashemi
(PID.TID 0000.0001) // Build host:        Hodas-MacBook-Pro.local
(PID.TID 0000.0001) // Build date:        Sat Feb 21 05:31:12 EET 2026
(PID.TID 0000.0001) 
(PID.TID 0000.0001) // =======================================================
(PID.TID 0000.0001) // Execution Environment parameter file "eedata"
(PID.TID 0000.0001) // =======================================================
(PID.TID 0000.0001) > &EEPARMS
(PID.TID 0000.0001) >  nTx=1,
(PID.TID 0000.0001) >  nTy=1,
(PID.TID 0000.0001) > /
(PID.TID 0000.0001) >
(PID.TID 0000.0001) 
(PID.TID 0000.0001) // =======================================================
(PID.TID 0000.0001) // Computational Grid Specification ( see files "SIZE.h" )
(PID.TID 0000.0001) //                                  ( and "eedata"       )
(PID.TID 0000.0001) // =======================================================
(PID.TID 0000.0001)      nPx =    4 ; /* No. processes in X */
(PID.TID 0000.0001)      nPy =    2 ; /* No. processes in Y */
(PID.TID 0000.0001)      nSx =    1 ; /* No. tiles in X per process */
(PID.TID 0000.0001)      nSy =    1 ; /* No. tiles in Y per process */
(PID.TID 0000.0001)      sNx =  360 ; /* Tile size in X */
(PID.TID 0000.0001)      sNy =  360 ; /* Tile size in Y */
(PID.TID 0000.0001)      OLx =    2 ; /* Tile overlap distance in X */
(PID.TID 0000.0001)      OLy =    2 ; /* Tile overlap distance in Y */
(PID.TID 0000.0001)      nTx =    1 ; /* No. threads in X per process */
(PID.TID 0000.0001)      nTy =    1 ; /* No. threads in Y per process */
(PID.TID 0000.0001)       Nr =    1 ; /* No. levels in the vertical   */
(PID.TID 0000.0001)       Nx = 1440 ; /* Total domain size in X ( = nPx*nSx*sNx ) */
(PID.TID 0000.0001)       Ny =  720 ; /* Total domain size in Y ( = nPy*nSy*sNy ) */
(PID.TID 0000.0001)   nTiles =    1 ; /* Total no. tiles per process ( = nSx*nSy ) */
(PID.TID 0000.0001)   nProcs =    8 ; /* Total no. processes ( = nPx*nPy ) */
(PID.TID 0000.0001) nThreads =    1 ; /* Total no. threads per process ( = nTx*nTy ) */
(PID.TID 0000.0001) usingMPI =    T ; /* Flag used to control whether MPI is in use */
(PID.TID 0000.0001)                   /*  note: To execute a program with MPI calls */
(PID.TID 0000.0001)                   /*  it must be launched appropriately e.g     */
(PID.TID 0000.0001)                   /*  "mpirun -np 64 ......"                    */
(PID.TID 0000.0001) useCoupler=   F ; /* Flag used to control communications with   */
(PID.TID 0000.0001)                   /*  other model components, through a coupler */
(PID.TID 0000.0001) useNest2W_parent =    F ;/* Control 2-W Nesting comm */
(PID.TID 0000.0001) useNest2W_child  =    F ;/* Control 2-W Nesting comm */
(PID.TID 0000.0001) debugMode =    F ; /* print debug msg. (sequence of S/R calls)  */
(PID.TID 0000.0001) printMapIncludesZeros=    F ; /* print zeros in Std.Output maps */
(PID.TID 0000.0001) maxLengthPrt1D=   65 /* maxLength of 1D array printed to StdOut */
(PID.TID 0000.0001) 
(PID.TID 0000.0001) ======= Starting MPI parallel Run =========
(PID.TID 0000.0001)  My Processor Name (len: 23 ) = Hodas-MacBook-Pro.local
(PID.TID 0000.0001)  Located at (  0,  0) on processor grid (0:  3,0:  1)
(PID.TID 0000.0001)  Origin at  (     1,     1) on global grid (1:  1440,1:   720)
(PID.TID 0000.0001)  North neighbor = processor 0001
(PID.TID 0000.0001)  South neighbor = processor 0001
(PID.TID 0000.0001)   East neighbor = processor 0002
(PID.TID 0000.0001)   West neighbor = processor 0006
(PID.TID 0000.0001) // ======================================================
(PID.TID 0000.0001) // Mapping of tiles to threads
(PID.TID 0000.0001) // ======================================================
(PID.TID 0000.0001) // -o- Thread   1, tiles (   1:   1,   1:   1)
(PID.TID 0000.0001) 
(PID.TID 0000.0001) // ======================================================
(PID.TID 0000.0001) // Tile <-> Tile connectvity table
(PID.TID 0000.0001) // ======================================================
(PID.TID 0000.0001) // Tile number: 000001 (process no. = 000000)
(PID.TID 0000.0001) //        WEST: Tile = 000004, Process = 000006, Comm = messages
(PID.TID 0000.0001) //                bi = 000001, bj = 000001
(PID.TID 0000.0001) //        EAST: Tile = 000002, Process = 000002, Comm = messages
(PID.TID 0000.0001) //                bi = 000001, bj = 000001
(PID.TID 0000.0001) //       SOUTH: Tile = 000005, Process = 000001, Comm = messages
(PID.TID 0000.0001) //                bi = 000001, bj = 000001
(PID.TID 0000.0001) //       NORTH: Tile = 000005, Process = 000001, Comm = messages
(PID.TID 0000.0001) //                bi = 000001, bj = 000001
(PID.TID 0000.0001) 
(PID.TID 0000.0001)  INI_PARMS: opening model parameter file "data"
(PID.TID 0000.0001)  OPEN_COPY_DATA_FILE: opening file data
(PID.TID 0000.0001) // =======================================================
(PID.TID 0000.0001) // Parameter file "data"
(PID.TID 0000.0001) // =======================================================
(PID.TID 0000.0001) >&PARM01
(PID.TID 0000.0001) >#rotationPeriod is set ini_parms: 86164 \approx 7.292123516990375e-5 ; our fortan is c/86400
(PID.TID 0000.0001) ># 7.27220521664304e-5 , 6.283185307179586
(PID.TID 0000.0001) >omega = 7.292E-5,
(PID.TID 0000.0001) ># MAYBE WE NEED TO ADD 1E2 FOR STABILITY IDK
(PID.TID 0000.0001) >viscAh  = 0.,
(PID.TID 0000.0001) >viscA4  = 0.,
(PID.TID 0000.0001) >diffKhT = 0.,
(PID.TID 0000.0001) >no_slip_sides = .FALSE.,
(PID.TID 0000.0001) >no_slip_bottom = .FALSE.,
(PID.TID 0000.0001) >exactConserv=.TRUE.,
(PID.TID 0000.0001) >momStepping=.FALSE.,
(PID.TID 0000.0001) >tempStepping=.FALSE.,
(PID.TID 0000.0001) >saltStepping=.FALSE.,
(PID.TID 0000.0001) >hFacMin=0.00001,
(PID.TID 0000.0001) >hFacMinDr=0.5,
(PID.TID 0000.0001) >/
(PID.TID 0000.0001) >
(PID.TID 0000.0001) >&PARM02
(PID.TID 0000.0001) >cg2dMaxIters = 5000,
(PID.TID 0000.0001) >cg2dTargetResidual = 1.E-8,
(PID.TID 0000.0001) >cg2dPreCondFreq = 1,
(PID.TID 0000.0001) >printResidualFreq= 1 ,
(PID.TID 0000.0001) >/
(PID.TID 0000.0001) >
(PID.TID 0000.0001) >&PARM03
(PID.TID 0000.0001) >nIter0   = 0,
(PID.TID 0000.0001) >nTimeSteps = 0,
(PID.TID 0000.0001) >deltaT   = 3600.,
(PID.TID 0000.0001) >monitorFreq=10,
(PID.TID 0000.0001) >/
(PID.TID 0000.0001) >
(PID.TID 0000.0001) >&PARM04
(PID.TID 0000.0001) >usingSphericalPolarGrid = .TRUE.,
(PID.TID 0000.0001) >delX = 1440*0.25,
(PID.TID 0000.0001) >delY = 720*0.25,
(PID.TID 0000.0001) >xgOrigin = 0.,
(PID.TID 0000.0001) >ygOrigin = -90.,
(PID.TID 0000.0001) >rSphere = 6371000.,
(PID.TID 0000.0001) >#clipping elevation of water
(PID.TID 0000.0001) >delR =  11000.0,
(PID.TID 0000.0001) ># 11000.0 ,
(PID.TID 0000.0001) >
(PID.TID 0000.0001) >/
(PID.TID 0000.0001) >
(PID.TID 0000.0001) ># Input datasets
(PID.TID 0000.0001) >&PARM05
(PID.TID 0000.0001) >bathyFile='bathymetry.bin',
(PID.TID 0000.0001) ># bathyFile='',
(PID.TID 0000.0001) >#  zonalWindFile='wind.bin',# Forcing to drive the "steady" circulation
(PID.TID 0000.0001) >
(PID.TID 0000.0001) >/
(PID.TID 0000.0001) >
(PID.TID 0000.0001) 
(PID.TID 0000.0001)  INI_PARMS ; starts to read PARM01
(PID.TID 0000.0001)  INI_PARMS ; read PARM01 : OK
(PID.TID 0000.0001) S/R INI_PARMS: No request for barotropic solver
(PID.TID 0000.0001) S/R INI_PARMS: => Use implicitFreeSurface as default
(PID.TID 0000.0001)  INI_PARMS ; starts to read PARM02
(PID.TID 0000.0001)  INI_PARMS ; read PARM02 : OK
(PID.TID 0000.0001)  INI_PARMS ; starts to read PARM03
(PID.TID 0000.0001)  INI_PARMS ; read PARM03 : OK
(PID.TID 0000.0001)  INI_PARMS ; starts to read PARM04
(PID.TID 0000.0001)  INI_PARMS ; read PARM04 : OK
(PID.TID 0000.0001)  INI_PARMS ; starts to read PARM05
(PID.TID 0000.0001)  INI_PARMS ; read PARM05 : OK
(PID.TID 0000.0001)  INI_PARMS: finished reading file "data"
(PID.TID 0000.0001)  PACKAGES_BOOT: opening data.pkg
(PID.TID 0000.0001)  OPEN_COPY_DATA_FILE: opening file data.pkg
(PID.TID 0000.0001) // =======================================================
(PID.TID 0000.0001) // Parameter file "data.pkg"
(PID.TID 0000.0001) // =======================================================
(PID.TID 0000.0001) > &PACKAGES
(PID.TID 0000.0001) >  useMyPackage = .TRUE.,
(PID.TID 0000.0001) > /
(PID.TID 0000.0001) 
(PID.TID 0000.0001)  PACKAGES_BOOT: finished reading data.pkg
(PID.TID 0000.0001)  PACKAGES_BOOT: On/Off package Summary
 --------  pkgs with a standard "usePKG" On/Off switch in "data.pkg":  --------
 pkg/mypackage            compiled   and   used ( useMYPACKAGE             = T )
 -------- pkgs without standard "usePKG" On/Off switch in "data.pkg":  --------
 pkg/generic_advdiff      compiled but not used ( useGAD                   = F )
 pkg/mom_common           compiled but not used ( momStepping              = F )
 pkg/mom_vecinv           compiled but not used ( +vectorInvariantMomentum = F )
 pkg/mom_fluxform         compiled but not used ( & not vectorInvariantMom = F )
 pkg/monitor              compiled   and   used ( monitorFreq > 0.         = T )
 pkg/debug                compiled but not used ( debugMode                = F )
 pkg/rw                   compiled   and   used
 pkg/mdsio                compiled   and   used
(PID.TID 0000.0001)  PACKAGES_BOOT: End of package Summary
(PID.TID 0000.0001) 
(PID.TID 0000.0001) MYPACKAGE_READPARMS: opening data.mypackage
(PID.TID 0000.0001)  OPEN_COPY_DATA_FILE: opening file data.mypackage
(PID.TID 0000.0001) // =======================================================
(PID.TID 0000.0001) // Parameter file "data.mypackage"
(PID.TID 0000.0001) // =======================================================
(PID.TID 0000.0001) >&MYPACKAGE_PARM01
(PID.TID 0000.0001) >/
(PID.TID 0000.0001) 
(PID.TID 0000.0001) MYPACKAGE_READPARMS: finished reading data.mypackage
(PID.TID 0000.0001) SET_PARMS: done
(PID.TID 0000.0001) Enter INI_VERTICAL_GRID: setInterFDr=    T ; setCenterDr=    F
(PID.TID 0000.0001) %MON XC_max                       =   3.5987500000000E+02
(PID.TID 0000.0001) %MON XC_min                       =   1.2500000000000E-01
(PID.TID 0000.0001) %MON XC_mean                      =   1.8000000000000E+02
(PID.TID 0000.0001) %MON XC_sd                        =   1.0392302339552E+02
(PID.TID 0000.0001) %MON XG_max                       =   3.5975000000000E+02
(PID.TID 0000.0001) %MON XG_min                       =   0.0000000000000E+00
(PID.TID 0000.0001) %MON XG_mean                      =   1.7987500000000E+02
(PID.TID 0000.0001) %MON XG_sd                        =   1.0392302339552E+02
(PID.TID 0000.0001) %MON DXC_max                      =   2.7798665505088E+04
(PID.TID 0000.0001) %MON DXC_min                      =   6.0647376310612E+01
(PID.TID 0000.0001) %MON DXC_mean                     =   1.7697236260984E+04
(PID.TID 0000.0001) %MON DXC_sd                       =   8.5552656128781E+03
(PID.TID 0000.0001) %MON DXF_max                      =   2.7798665505088E+04
(PID.TID 0000.0001) %MON DXF_min                      =   6.0647376310612E+01
(PID.TID 0000.0001) %MON DXF_mean                     =   1.7697236260984E+04
(PID.TID 0000.0001) %MON DXF_sd                       =   8.5552656128781E+03
(PID.TID 0000.0001) %MON DXG_max                      =   2.7798731661140E+04
(PID.TID 0000.0001) %MON DXG_min                      =   0.0000000000000E+00
(PID.TID 0000.0001) %MON DXG_mean                     =   1.7697194144702E+04
(PID.TID 0000.0001) %MON DXG_sd                       =   8.5553527331570E+03
(PID.TID 0000.0001) %MON DXV_max                      =   2.7798731661140E+04
(PID.TID 0000.0001) %MON DXV_min                      =   0.0000000000000E+00
(PID.TID 0000.0001) %MON DXV_mean                     =   1.7697194144702E+04
(PID.TID 0000.0001) %MON DXV_sd                       =   8.5553527331570E+03
(PID.TID 0000.0001) %MON YC_max                       =   8.9875000000000E+01
(PID.TID 0000.0001) %MON YC_min                       =  -8.9875000000000E+01
(PID.TID 0000.0001) %MON YC_mean                      =   0.0000000000000E+00
(PID.TID 0000.0001) %MON YC_sd                        =   5.1961474109831E+01
(PID.TID 0000.0001) %MON YG_max                       =   8.9750000000000E+01
(PID.TID 0000.0001) %MON YG_min                       =  -9.0000000000000E+01
(PID.TID 0000.0001) %MON YG_mean                      =  -1.2500000000000E-01
(PID.TID 0000.0001) %MON YG_sd                        =   5.1961474109831E+01
(PID.TID 0000.0001) %MON DYC_max                      =   2.7798731661140E+04
(PID.TID 0000.0001) %MON DYC_min                      =   2.7798731661140E+04
(PID.TID 0000.0001) %MON DYC_mean                     =   2.7798731661186E+04
(PID.TID 0000.0001) %MON DYC_sd                       =   4.6802597353235E-08
(PID.TID 0000.0001) %MON DYF_max                      =   2.7798731661140E+04
(PID.TID 0000.0001) %MON DYF_min                      =   2.7798731661140E+04
(PID.TID 0000.0001) %MON DYF_mean                     =   2.7798731661186E+04
(PID.TID 0000.0001) %MON DYF_sd                       =   4.6802597353235E-08
(PID.TID 0000.0001) %MON DYG_max                      =   2.7798731661140E+04
(PID.TID 0000.0001) %MON DYG_min                      =   2.7798731661140E+04
(PID.TID 0000.0001) %MON DYG_mean                     =   2.7798731661186E+04
(PID.TID 0000.0001) %MON DYG_sd                       =   4.6802597353235E-08
(PID.TID 0000.0001) %MON DYU_max                      =   2.7798731661140E+04
(PID.TID 0000.0001) %MON DYU_min                      =   2.7798731661140E+04
(PID.TID 0000.0001) %MON DYU_mean                     =   2.7798731661186E+04
(PID.TID 0000.0001) %MON DYU_sd                       =   4.6802597353235E-08
(PID.TID 0000.0001) %MON RA_max                       =   7.7276702989699E+08
(PID.TID 0000.0001) %MON RA_min                       =   1.6859188026131E+06
(PID.TID 0000.0001) %MON RA_mean                      =   4.9196033170312E+08
(PID.TID 0000.0001) %MON RA_sd                        =   2.3782534440125E+08
(PID.TID 0000.0001) %MON RAW_max                      =   7.7276702989699E+08
(PID.TID 0000.0001) %MON RAW_min                      =   1.6859188026131E+06
(PID.TID 0000.0001) %MON RAW_mean                     =   4.9196033170312E+08
(PID.TID 0000.0001) %MON RAW_sd                       =   2.3782534440125E+08
(PID.TID 0000.0001) %MON RAS_max                      =   7.7276886894985E+08
(PID.TID 0000.0001) %MON RAS_min                      =   0.0000000000000E+00
(PID.TID 0000.0001) %MON RAS_mean                     =   4.9195916092479E+08
(PID.TID 0000.0001) %MON RAS_sd                       =   2.3782776623264E+08
(PID.TID 0000.0001) %MON RAZ_max                      =   7.7276886894985E+08
(PID.TID 0000.0001) %MON RAZ_min                      =   0.0000000000000E+00
(PID.TID 0000.0001) %MON RAZ_mean                     =   4.9195916092479E+08
(PID.TID 0000.0001) %MON RAZ_sd                       =   2.3782776623264E+08
(PID.TID 0000.0001) %MON AngleCS_max                  =   1.0000000000000E+00
(PID.TID 0000.0001) %MON AngleCS_min                  =   1.0000000000000E+00
(PID.TID 0000.0001) %MON AngleCS_mean                 =   1.0000000000000E+00
(PID.TID 0000.0001) %MON AngleCS_sd                   =   0.0000000000000E+00
(PID.TID 0000.0001) %MON AngleSN_max                  =   0.0000000000000E+00
(PID.TID 0000.0001) %MON AngleSN_min                  =   0.0000000000000E+00
(PID.TID 0000.0001) %MON AngleSN_mean                 =   0.0000000000000E+00
(PID.TID 0000.0001) %MON AngleSN_sd                   =   0.0000000000000E+00
(PID.TID 0000.0001)  MDS_READ_FIELD: opening global file: bathymetry.bin
(PID.TID 0000.0001) // =======================================================
(PID.TID 0000.0001) // Field Model R_low (ini_masks_etc)
(PID.TID 0000.0001) // CMIN =         -6.077489257812500E+03
(PID.TID 0000.0001) // CMAX =         -4.999999999999999E-01
(PID.TID 0000.0001) // CINT =          2.250736762152778E+02
(PID.TID 0000.0001) // SYMBOLS (CMIN->CMAX): -abcdefghijklmnopqrstuvwxyz+
(PID.TID 0000.0001) //                  0.0: .
(PID.TID 0000.0001) // RANGE I (Lo:Hi:Step):(    -1:   362:     1)
(PID.TID 0000.0001) // RANGE J (Lo:Hi:Step):(   362:    -1:    -1)
(PID.TID 0000.0001) // RANGE K (Lo:Hi:Step):(   1:   1:   1)
(PID.TID 0000.0001) // =======================================================
(PID.TID 0000.0001) K =   1
(PID.TID 0000.0001) //                I=8       I=18      I=28      I=38      I=48      I=58      I=68      I=78      I=88      I=98      I=108     I=118     I=128     I=138     I=148     I=158     I=168     I=178     I=188     I=198     I=208     I=218     I=228     I=238     I=248     I=258     I=268     I=278     I=288     I=298     I=308     I=318     I=328     I=338     I=348     I=358
(PID.TID 0000.0001) // |--J--|101234567|901234567|901234567|901234567|901234567|901234567|901234567|901234567|901234567|901234567|901234567|901234567|901234567|901234567|901234567|901234567|901234567|901234567|901234567|901234567|901234567|901234567|901234567|901234567|901234567|901234567|901234567|901234567|901234567|901234567|901234567|901234567|901234567|901234567|901234567|901234567|9012
(PID.TID 0000.0001) //    362 eeeeffffffggggghhhhiiijkklloxqnnnopsvz+.......................................................................................................................................+yvtrpnllkkjjiiihhggffffffeeedddeeedeeeeeeeeeeffggiokgffffggggggggggggffffhihigiiggijjjijjkilllllnlmlkjijjiijiijiiiiijnt++tqpnkiihhhhgggfffffffffffffggggggggghhggggggggggggggggggggggggijkhji
(PID.TID 0000.0001) //    361 eeeffffffgggggghhiiiiiiklmnsyqnnooqsvz+++....................................................................................................................................++vsrpnmlkkjiiiihhgggffffffefeddeeeeddeeeeeeeeeegnhmohgffffgggggggggggggfgghgghijhgfkkjjijjijjknpnnnklkikkjijjkiiiiiiijlpvuqpoomiihhhhggffffffffffffffffggggggghhhgggggggggggggggggggggggilkiig
(PID.TID 0000.0001) //    360 eefffffgfghggghhhhhiiijklmqppnnoopqtwz++....................................................................................................................................+zvqpnmmlkkjjiihhhggffffffffeeeddeeeeeeeeeefeeffffkhnigfgffgggggggggggggggghggjjihgihgiiikkijkimlrlpnmmljkjjkkjikjiiiiijlqsrrponkhhihhgggfffffffffffffffffffgggghigggggggggggggggggggggghhimmlki
(PID.TID 0000.0001) //    359 eefgfgggjihhggghhhhiijjjlmommmnopqrux++....................................................................................................................................++xronmmllkjjiihhhggfffffffeeeeeddeeeeeeeefeeffffejkgljhgfffggggggggggggggggggghiifhjkihjijgjkjljpplnnnlkikjkjkijjijiiiijlqsvppnljgghgggggffffffffffffffffffffffghggggggggggggggggggggggggiknmnml
(PID.TID 0000.0001) //    358 fffggggggghggghihijijjjkknpmmmnopqsvz++....................................................................................................................................+ytponmllkkjiihggggfffffffeeeeeeddeeeeedeeeefffffffgfffffffggggggfgffggggggggggghhgihggijjhikjkklnmnmpmnkkjlkkjkjiiiiiiiimqyrpqomjgggggggfffffffffffffffffffffffffffggffhgggggggggggggggggilponml
(PID.TID 0000.0001) //    357 ffgggggggfhhghhhhiiijjjkkmmlmmnopqtw++....................................................................................................................................+yuqonmmlkkjiihhgggfffffffeeeeeeeddeeeedddeeffffffffffhgffgggfffffffffgggggggggggggggghgjhhijjkjlllnqmmopnlkmlkiiikijiiiiiosurqpomiffggggffffffffffffffgggggffffffffffffgjgffffggggggggfgggknppnmk
(PID.TID 0000.0001) //    356 ffggghggggjhghhhhiiijjklllllmmnopqtx++...................................................................................................................................+yvrpnnmllkjjihhgggfffffffeeeeeeeedeeeeedddefgffffggggggggggggggggffffffggggfffgggggfegggggikkjkkkjmopompnlmnlkiiijihjjiiiimqrqponlhffffffffffffffffffffggggfffffffffffffggfffffffffffffggghmppnmlj
(PID.TID 0000.0001) //    355 fgggimghghhhgghhhiiijjllvnllmmnnoqswz++.................................................................................................................................+zwsqonmmlkkjjihhggfffffffeeeeeeeeddeeeeeddeefgffgggghggggggggggggggggggghggffffffgffffhggiiiiiijkilllkjoolllmkkkijjhhiiiiiijnpponnjgffffffffffffffffffffggffffffffffffffffffffffffffffffgggiloolkig
(PID.TID 0000.0001) //    354 fgggggghjhhhhggghiijkjkkpklllmmmnpquy+++................................................................................................................................zwsqonmmlkkjjihhgggfffffffeeeeeeeedddeeeddeeefgggggggggggggggggggghgggghhhggffffffgggghgggiiikjikjikkkjonmqnmkijjiiikgiiiiiimpqqonmhffffffffffffffffffffffffffffffffffffffhfffffffffffffgggggmonkhgg
(PID.TID 0000.0001) //    353 gggfffhjiiihhhgghiiiiijjjklmlllmmnprvz++.............................................................................................................................+.zwsqonmmlkkjjjihggggffffffeeeeeeeeddddeedeeedeefgghggghggggggggggggggggghhgggffffffggggigggiijjikjiijkilooopnnjjjiijihiiiiiiioqppnnlhgffffffffffffffffffffffffffffffgfffffffffffffffffffggggggmnmhigf
(PID.TID 0000.0001) //    352 ghgffgikiiihhhggghhhiijjjjkpllllmmnquz++.............................................................................................................................++xtqonmmllkkjjiihhgggffffffeeeeeeeeddddedeeeeeeegghgghhghhggggggggghhggghhghigggfffgggghgghiihiiiiijliilnnnpllkkljjkkhgiijhghilqpnnnmigfffffffffffffffffffffffffffffggghffffffffffffffffggiggghkmjhhgg
(PID.TID 0000.0001) //    351 hhggghiihhhlihgggghhhikjjijjkkkkllnquy+++............................................................................................................................+ztrpnnmllkkkjjiihhggffffffeeeeeeeeeedddedeeefeeeefghghiiiihggggghhhhhghhikhghihgggfgfggigiiighhhhiikkiklnnolkikkkjikjgjjkhggghknponmlggfffffeeeeffffffffffffffffffffggihgfggffffffffffffgggggggimkkjjj
(PID.TID 0000.0001) //    350 ggggghhhhghihhgggggghhjiiiiiijjjklmpuxz++++.......................................................................................................................+++zysponmmllkkjjjiihhggfffffeeeeeeeeeeeeeedeeeeffffkhihhhhikkjhhhhhhhhhhhhhhhighggggggfffgihihgghhhiijmjilllmmkjmmkkijjhiiihhggghkoonnnlffffffeeeeeeeeeeeeeeeffffffeeeefglkhggfffffffffffffgggggggjnnlllk
(PID.TID 0000.0001) //    349 ggggghgijhhikhhgggggghhhhhhhhiijjjjpsvxz+++.......................................................................................................................+zzzvqonmmllkkkjjiihhggffffffeeeeeeeeeeeeeeeeeeeefffiiliiiijmlkjhhhhhhihhhhhhikhghgggggffghihhhhhhijiikkijklloljnomkjikigiigiijgghjnmmmnkffeffeeeeeeeeeeeeeeeeeeeeeeeeeeegjmmggfffffffffffffgggggghjmmlllk
(PID.TID 0000.0001) //    348 ghhghhhoigghggggffggggghgghhhhiiihinqtvx++++......................................................................................................................+zzxtponmmllkkjjjihhhggffffffefefeefeeeeeeeeeeeeefgfgilkjiipnmljiiihhhhikijhiipkkjhhhgggghiihhhiiiihhjljjjklomklrmljikijgkhiiiihhhjlkjllhfeeeeeeeeeeeeeeeeeeeeeeeeeeeeeeegjllhfffffffffffffffgggggikkllkji
(PID.TID 0000.0001) //    347 hhgihhhigfgffffgffffffgffgghhhhhhhiknrsuxz+++....................................................................................................................+zyxxuqonmllkkkjjihhhgggffffffeeeeeeeeeeeeeeeeeeeeggghjonmjornmmlkjkihhhiihhhhinljjkjihhhhiihhiiiijihjjijkkkjklnlnkjijjjhliiiiiiiijjiijjieedeeeeeeeeeeeeeeeeeeeeeeeeeddeeegkkigffffffffffffffffggggjnlkkiii
(PID.TID 0000.0001) //    346 ggghgghgfffffffifeeeffffffgghhhhhhiiloqruxz+++...................................................................................................................zzxxwtqonmlkkkjjiihhgggffffffffffhfeeeeeeeeeeeeeegggkjnopnorsuussolkiihhiiiiihiljnkmliiihiihhiiiijjikijikkkjlmmkmlkiijjlijiiiiiiijklllkmmeddeeeeeeeeeeeeeeeeeeeeeeeedddeeehkkgggfffffffffffffffffggknnlkkkj
(PID.TID 0000.0001) //    345 gggggfffeffeeeeeeeeeffffffggghhhhiiijlnprsxz+++..................................................................................................................zxwwvtqommlkkjjiihhgggfffffffffeeffeeeeeeeeeeeeeeggiiknnnotyyzz+zwqlkjiiikiiiijijkklkjiiiiihiiiiiiiiikiijijklkjmlkiikkkjiiiiijiiikmnnnmnnfddeeeeeeeeeeeeeeeeeeeeeeeedddeeeekkiggfffeefffffffffffffglnonnmlj
(PID.TID 0000.0001) //    344 gffgffffeffeddddddemkfeefffggghhhiiijklmoptx++++................................................................................................................+yxwvusqnmmlkjjiihhgggffffffffffeeeeeefeeeeeeeeeeggghilnnnqzz+++++ztqmkjiijmiiiiijkllklkjiihiiiiiiiiijiijiijkkimllkinmkkjiiiijjiijlorqpookeeeeeeeeeeeeeeeeeeeeeeeffeeeeeeeehkkiggfeeeeefffeeeeeeeefgjnpnnlji
(PID.TID 0000.0001) //    343 gggffffffeeedefeheemieeefffggghhhiiijkkllnptwz++................................................................................................................zxxwutsqomllkjiihhhgggfffffffffffeeeeeeeeeeeeeeeegfghikmoqwz++++++zytnlkjiijiiiiijnlkkkkjiiiiiiiiiiiiiiiiiijkjmllljnnpmkkkjiiiiijkmpwrppojfefeeeeeeeeeeeeeeeeeeeeffeeeeeeegkljifeeeeeeeeeeeeeeeeeefgilmkhgfg
(PID.TID 0000.0001) //    342 ggggfffffeedddehmddeeeeefffffghhhiijjkkllmnqsvy++.............................................................................................................++yywutssqnmllkjiihhhggggffffffffffeeeeeeeeeeeeeeeeffghiinrtz++++++++zwronkjiiiiiiiikkjjkkkjiiiiiiiiiigiiiikiiikmlljlrqnlklljiiiijknqwsrqpngfefeeeeeeeeeeeeeeeeeeeeeeeeeeeeegikiheeeeeeeeeeeeeeeddddefilligeee
(PID.TID 0000.0001) //    341 hhhfffffgedddehiefdeeeeeeffffgghhiijjkklmnoprsuz++............................................................................................................+yyzvtsrqpomlkjjiihhhgggggggffffffffeeeeeeeeeeeeeefeffhihxnoruxzz+++++zvrqnjiiiiiiiiiiijjklkiiiiiiiijhikiiijkijlljjmomonlnlkjkiiijlruyurqpneeeeeeeeeeeeeeeeeeeeeeeeeeeeeeeeefgiifddeeeeeeeeeeeeedddddegkkhfeee
(PID.TID 0000.0001) //    340 ijigffefgdcggeeddedgefeeeffffgghhiijjkklmnoprsuyz++...........................................................................................................zxzyutsrpoomlkkjiihhhhgggggggfffffffeeeeeffeeeefeeeefgigpwnmmopsuy+++++zwrpljiiiiiiiiiijjkkjiiiiiiihgiiiiijkjikkjjmplmlomlkkkiiijlptvwvsqokeefeeeeeeeeeeeeeeeeeeeeeeeeeeeeeeegggeddeeeeeeeeeeeeeeeeddefkkgheee
(PID.TID 0000.0001) //    339 jkjgfeeedccfedddddddeeeefffffgghhiijjkklmnoprtuxz++..........................................................................................................+zxzyusrrponmlkkjiiihhhgggggggffffffffeeeefgfeeeefeffgghgvxnmlllmnquwy+++ztroljiiiiiiiiijjkkiiiiiiihghiiijjjiikjkikmlmmjonllkiijjlpuyxwrppnieffdddeeeeeeeeeeeeeeeeeeeeeeeeeeeeeffeeeeeeeeeeeeeeeeeeeddehjijkige
(PID.TID 0000.0001) //    338 klifeeedcbbccdeddddddeeeffffggghhiiijjklmnnppsvyz++..........................................................................................................+zywwusrqonmmlkjjjiihhhhgggggggffffffffeefgiifeeeeeffggfkxyypkkklmronpz+zvvuromkjiiiiiiijjjjiiiiiiiijkjiiiiikijkilklnljmomjlijjkkmruxyxvronjeeedddeeeeeeeeeddddeeeeeeeeeeeeeeeeeeeeeeeeeeeeeeeeeeeeeddfhkmnmkhf
(PID.TID 0000.0001) //    337 iigfhgedcbbbcggfddddddeeffffggghhhiijjklmmnprsuwy++..+.......................................................................................................++zwuusrqpnmllkjjjiihhhhggggggggfffhgfffefjkiffeeeeffgfhsyunkkkkkoynmoytrtwvtspmjiiiiiiiiiiiiiiiiiiijiiiijijjkkiiljknjonkjkijkklloqzzzzztnmiedeeeeeeeeeeeeeddddeeeeeeeeeeeeeeeeddddeeeeeeeeeeeeeeeeeedfjmppmkii
(PID.TID 0000.0001) //    336 hghkigedbbbbcdhhddddddeeffffggghhhijjjkkllnpqtvyz+++.........................................................................................................+++xutssqpnmllkkjjiihhhhhggggggggffgggffffjkigfeefffffflxzokkmokkoqmmpyqosvvvusokjiiiiiiiiiiiiiiiiiiiiiiiikijkjjkjoojnolikkijkkkmpy++++zsnmfedeeeeeeeeeeeeeeccdeeeeeeeeeeeeeeedddddeeeeeeeeeeeeeeeeeddehmpolkji
(PID.TID 0000.0001) //    335 hippifeccbbbbcgfddddddeeeffffggghhiijjjkklmoqtvyz+++.........................................................................................................+++zuttrqpnmmlkkjjiihhhhhhggggggggfffffffilmigffffffffeptqkjjkmkkllklsxopxuuvvspmkjjiiiiiiiiiiiiiiiiiiiiiikkliikjmkjnnnkjkjjkkkkmsz++++vqnreedeeeeeeeeeeeeeedcdeeeeeeeeeeeeeeddddddeeeeeeeeeeeeeeeddedgjmpnmljh
(PID.TID 0000.0001) //    334 pmihfedcbbbbbbcdddddddeeeefffggghhhhijjkkkknqsvxyz++..........................................................................................................+zyvuusqpommlkkjjiiihhhhhhgggggigffffffinnligfffffgggeotkijjjkjklkklqqoorvuuutqnlkjjiiiiiiiiiiiiiiiiiiiiijjiijjjjlonnmilkkkkkkkoszzz+zurmkeddeeeeeeeeeeeeeedddeeeeeeeeeeeeeeeeeeeeeeeeeeeeeeeeedddddehmnnlikjg
(PID.TID 0000.0001) //    333 mogfeddcbbbbbbcddddddddeeefffggghhhhiijjkkkmpsuwxz+++..........................................................................................................+yzwusqponmlkkjjiiiihhhhhhgggggggffffiqonlihggffghiiemsiijljjjjklklppoqnorttsrpnldfijiiiiiiiiiiiiijiiiiiiijiiiijmnnnllnkjjkkknsyxwwvxsqlkeddeeeeeeeeeeeddddddeeeeeeeeeeeeeeeeeeeeeeeeeeeeeeeeeddddcdgjmnlhgif
(PID.TID 0000.0001) //    332 hgeeddcbbaaabbcddddddddeeeffffggghhhhiiijjjkprtuwyz++...........................................................................................................zywusqponmlkkjjiiiihhhhhhhggggggffggkkknnkihgfgghiientjiijjjjjjkklttoxnmnrttsrqolkejjjjiiiiiiiiiiiiiiiikkjijijmmnmlmnnjijjkkotzzvtuusnlkeeeeeeeeeeeedddeeeddeeeeeeeeeeeeeeeeeeeeeeeeeeeeeeeeedddccbcinnlhgec
(PID.TID 0000.0001) //    331 eeeedddcbaaaabbccccddddeeeefffgggghhhhiiiijkoqstvxyz++.........................................................................................................++ywusqonmllkkjjiiiiihhhhhhhggghggggghiimnkkjhggfgihegrjiikijjjjjkknonxvmmottttsqnmlkkkkjjjjjjjiiiiiiiiijjjkikklnjlonomiiikkloxzyvtuyrlkiegeeeeeeeeeedddeeeddeeeeeeeeeeeeeeeeeeeeeeefgfeeeeeeedddcbcdhnnjgecb
(PID.TID 0000.0001) //    330 ddeedhjcbaaaabbbccccddddeeeffffggghhhhhiiiijnprsuvwxz+.........................................................................................................++zwtrponmllkjjjiiiiihhhhhhhhhhhhhigffhikmjkkihgfgifeeoliiiiijkjjkklnmpwmmmprtutsrpnlkkkkkkkkkjjiiiiiiiiiikkkklmjmoonmjkijkkmqxtvvtttpjifgfeeeeeeeeeedddddeddeeeedddddeeeeeeeeeeeeeefegfeeeeeeedddddeinnhfecc
(PID.TID 0000.0001) //    329 dedderkbbbaaabbcccccddddeeefffffggghhhhhhiijnnqrstuuy++........................................................................................................++zvsqponmlkkjjjiiiiiihhhihhhhihhgggfffgimiiokigfgghiellhhhhiikjjlnlomlonlmnpsuuutrpnmmllkklkkkjiiiiiiiiiikjklljlomnnjjiijkkmpruvtttsnjhegeeeeeeeeeeeeddddddeeeedddddddeeeeeeeeeeeeeefggfeeeeeeeeeeefiooifecc
(PID.TID 0000.0001) //    328 edcchgcbcbbbbbbccccccddddeeefffffggghhhhhhijlooqrsstxz+........................................................................................................++xusqponmllkkjjiiiiiihhhhijjiljhggggfhgghhhiiigfghihekmihhhiijkjklmllklllmnoqtvuuutqonmmlllllkjiiiiiiiiijikkjjlmlomkkkijikmnrttvrsroljhffeeeeeeeeeeeedddddeeeeedddddddeeeeeeeeeeeeeggggeedddeeeeeeegkonifdbc
(PID.TID 0000.0001) //    327 ddcdjebgjbbbbbccccccccddddeeefffffgggghhhhijknopqrstwz++.......................................................................................................+yvusqonnmmlkkkjiiiiiiihhhhjmmpqjggggggggffgijhgghijiegrlihiiijkjkkklkkkkklmnpsvuvtyuqponmmmllkjiiiiiiiiijjkiikmkopmkkkiijlnpsusurqpnljggeeeeeeeeeeeedddddeeeeeeeddddeeeeeeeeeeeeeegggggedccddeeeeeehnnmhfdbc
(PID.TID 0000.0001) //    326 ccdccbbcbbbbbbbcccccccddddeeeffffffgggghhhijkmopprstvy++.......................................................................................................+yutrponnmmlkkjjjiiiiiiiihhijlswqhggghigffffhiiklnliifejnoiiiiiijllmnlklkklmnpqsuvxzwrqppponmlkkjiiiiiijijkijkkjmpljkkjiiklrsrssqppomliggeeeeeeeeeeeeddddeeeeeeeeeddeeeeefeeeeeeeeefgggecccbceeeeeeehnnkgedbb
(PID.TID 0000.0001) //    325 ccdbbbbaabbbbbbbbcdccccddddeeeffffffggghhhiijmnpqrsuvy+........................................................................................................+ytqqpnnmllkkkkjjjjiiiiiihhiiksuqiggggggfeffijmtnppjiifegjjjjiiijlllllkkkkllnopsuvxzytrqqqpnmllkkjjiiijijkjjkllmldmjkkijiklrtsrqppnnmkiggeeeeeeeeeeeeeeeeeeeeeeeeeeeeeeeeeeeeeeeeeefgheddcbcdeeeeeeegmnkgecbc
(PID.TID 0000.0001) //    324 cccbbbbbbbbbbbbbbccdcccddddeeeeefffffggghhiiknopqqsuxz.........................................................................................................+zupoomlnnmlllkkjjjjiiiiiihiiilnhhggggggffgikmqvnkliigiiehmjiihijkmllkjjjjklnopstvxzzurqqqqonmlkkjijkiiiiijkjlmkfmkkkjkijkortrqqpnnmlkggheeeeeeeeeeeeeeeeeeeeeeeeeeeeddeefeeeeeefeefgffedcceeeeeeeeehmokgecbc
(PID.TID 0000.0001) //    323 ccbbbbbbbbbbbbbbbcccccccddddeeeeeffffggghhhiknoprrsux++.........................................................................................................+uqpnmmoonnmllkkjjjjjjiiiinxpiihhhhggggffhjlnrytnpiiijiggiiikhijkjklljjjjkklnpqtvwyzvtrrrqppomlkkkjjkjiijkjllkjmlllkijijknpqppppnmlkiggeeeeeeeeeeeeeeeeeeeeeeeeeeeedddefgeffeeffeefegeebdeeeeeefffehnokgecbc
(PID.TID 0000.0001) //    322 cbbbbbbbbbbbbbbbcccccccccddddeeeeffffgggghhijnpprrstwz+.........................................................................................................+wsromnoponmlllkkjjjjjjiiijolhhjshhgggggfilnotwtpkiiiiggidiiiijkjklokjiijjklmoprxyyvvvwwusqqqonlkijijiikkikljpllmlkjjkiiklmnppppnmljilfeeeeeeeeeeeeeeeeeeeeeeeeddddddddeeifdeeeeefegegcdeeeeeefeeeeglmjfdcbb
(PID.TID 0000.0001) //    321 cbccbbbbbbbbbbbccccccccccdddddeehfffffggghhijmooqrrsvy+..........................................................................................................yvtrnnpponmmllkkjjjjjjjiiikmjikqihgghiigkpvtuvsliiihgffghjiiijikjkpkiiiijjkmopquzzwxzzzzytrromkjiiijkkijkkkpjmmmjkjkijjijkmnoqsnmljimgeeeedddeeeeeeeeeeeeeddddddddeeefggeddeeeeeeeggecddeeeeeefedegjkjgdcbb
(PID.TID 0000.0001) //    320 bbccbbbbbbbbbbbcccccccccccdddddefeeffffgghhijknpqrrstxz+.........................................................................................................+zxuqooqponmmllkkkkjjjjiiiijkijmkhhhijiinrruuzpoihgggffgijiiiiiijlpnijiiijklnppqy+zz++++zzwrokjiiikkkikkjjohknmjmjkjiiijklklmptolkiihgeeeccddeeeeeeeeeeddddddddddeeeeeeddedeeeeeefghedeeeeeeeeedddfikigdcbb
(PID.TID 0000.0001) //    319 bbbbbbbbbbbbbbbcccccccccccdddddeeeeffffgghhiijmpqrsstwz+...........................................................................................................+xsporqoonmllllkkkjjjjjiiijkijihhhjkhjnpqrnrkiihgggfffghiiiiiiijlvljiiijjlmnnosz++++++++zuqnjkkjjijkjjmojopnlmkikkiijjmmllmnqnkiiigeeeeccdeeeeeeeeedddddddddddddddddddddeeeeddeeiedeefeeeeeeeddehkkifdcba
(PID.TID 0000.0001) //    318 bcbbbbbbbbbbbbbccccccccccccddddeeeefffghihhiimkoprsstvxz+...........................................................................................................zurorqponmmllllkkkjjjjjjkkkiiiiiiklkilnonkijiiggggffffgghiiiiihikliiiiijklmnnqx++++++++zwsqmlkjikjiimlmpnmmmijkkijkkjjjllmnpmjiihfdeeeccddeeeeedddddddddddddddddddddeeeeeeeddegfeeefeeeeeeeeddfimlkfdcba
(PID.TID 0000.0001) //    317 ccbbbbbbbbbbbbbbcccccccccccddddeeeeffffgghhjijompssttuvy+...........................................................................................................zvrpsqponmmmllllkkkkkkjjkliiiiiijkmmkllmskihhhgggffffffgghiiijiiiihhiiiijklmnptz+++++++ztpnlkkkkjijkilnkknkjijkkjkkjjjllomnmkjiihdceeeddddeeeeddddddddddddddddeddddeeeeeeeeeefgeeeeeeeeeeedeeefnqomhdcaa
(PID.TID 0000.0001) //    316 ppcbbbbbbbbbbbbbbcccccceccccdddeeeeffffgghiiikkknsqttuvwz+.........................................................................................................+zwrssqponmnpnlllllllkkkjjjjjjiijklmnnpplpjhhhgggffffffffghiiiihhhhhhhiiijjlmnoqyz++++++xqnlkkkkkjjljmnjjklnlkkklkkkijmnnonnlkiigicgeeeeddeeeeddddddddddddedddddddeeeeeeeeeeefgeeeeeeeeeeeedehegpsrohcbab
(PID.TID 0000.0001) //    315 gdbbbbbbbbbbbbbbbbbcccccccccddddeeefffgghhiiijjklmoqsuvx+..........................................................................................................+zvruuqponmoxpllllllllkkkjjkokjjkkmnoqomkiihhggghgfffffffgghijhhhhhhhhiiiijklmnoszzzz++zuomllmkkjjkjmokkkkklllklllkkjkklmnnmlkigfhcfeeeeeeeeeedddddddddddddddddeeeeeeeeeeeedehfeeddddcccdeedeeehpsrnfcbac
(PID.TID 0000.0001) //    314 bbbbbbbbbbbbbbbbbbbcccccccccddddeeeffgghhiiijjkklnpqstuy+..........................................................................................................+zuqstqonnnq+smmllllllkkkjkmwljklmnqrtmljiihhggggffffffffgghiiihhhhhhhhiiiijlllnpuzzzz+ztommmjjijkjlmjkollkklkkklkjijijllmmlkjiiggcdeeeeeeeeedddcbcddddddddddddeeeeeeeeeeeddejefddddccbcdeeedeeipsrmfcbcd
(PID.TID 0000.0001) //    313 bbbbbbbccccccccccbbcccccccccddddeeeffgghhiijjkkklpqrstvx+..........................................................................................................+zsqrrqonmouxtmmrmllllklkkkkkkpmmpruxtmkjiihhgggfffffgfffggghkihhhhhhhhhiiiijklmoqwzzzzwsolkjjijijkkjmnmmnmlllklkjihiijklllkjighgeddeeeeeefedddcbcdddddddddddddeeeeeeeeeeeeflegddddcbbbdeeeedefiorqmfbbcd
(PID.TID 0000.0001) //    312 aabbccccccccccccccccccccccccddddeeeffgghhiijkkklmpqrstvy+...........................................................................................................zsqxqpnmmmnotosysmmllklpnkjlnzutwx+zvplkjihhhggffffffffffggghhhhhhhhhhhiiiijklmoqvzywsqmkjiiiiikkklmkpnmmlmllkkjkiiijkkkkjkjhhggfedeeeeeefedddcddddddddddddddeeeeeeeeeeefgihhicedcbccgeeeeeeegjpqplebbbe
(PID.TID 0000.0001) //    311 aaacccccccccccccccccccccccccddddeeeffghhhijjkkllmpqrstvz............................................................................................................ztqrponmlklozwntsnnmmkwzukkkszyz++.+yqnljihhhggffgggfffffgggihhhhhhhhhhiiiijklmorwyvpnlljjkjjkjkjklknlnnonmlmkjjjiijjkllkkiigggfeeeeeeeeeeedddddddddddddddddeeeeeeeeeeffeeihhgdeddcdeeeeeeeeegjpqoldbbce
(PID.TID 0000.0001) //    310 aabcccccccccccccccccccccccccdddeeefffghhhhijkkllmpqrtvz+............................................................................................................zspppomllklqrpmllvxrmllmllklwzxz++..zvrmkiihhggffffgggffggggihhhhhhhhhhhiiijjklnuzxqolkkkjiikkkjjiknlomopnlmkjjjikjjkkkkjiigggfedeeeeeeeeeedddeddddddddddedeeeeeeeeeeeeeeghfgfeeeddeeeffffeeefiprokdbbdd
(PID.TID 0000.0001) //    309 aabbccccccccccccccccccccccccdddeeefffghhhiiijkllmoqrty.............................................................................................................+xspppnmllllnnmlklu+umlkllllnzxx+++...+vnkjiihggfffffggffgihhhhhhhhhhhhhhiiijjjkouysonmkkkjjkkkjnjklmmpnoonnkkkmkjkjjkjjjiiigigedddeeeeeeeeeddddddddddddddddeeggeeeeeeeeeggegiegeeeeefeggggfeegiqrohcbbce
(PID.TID 0000.0001) //    308 bbbbbcccccccccccccccccccccccdddeeeffgghhiijjjkllmnprw+..............................................................................................................ysqqonmmllllmllllqvqllkllllmqsy+++...+tolkjihhggfgjghgffghiihhhhhhhhiihhiiijjjlqwwtpolkkjjjjjkljjlmmmomnlkkmmkkkkjjijjjjijihhedddcceeeeeeeeeedcccddddddddddeeggfeeeeeeeeefgifgheeeefhgggggggfhlrrnicbbcf
(PID.TID 0000.0001) //    307 cbbbbcccccccccccccccccccccccdddeeeffggghhijjkkklmnps+...............................................................................................................ytqronmmllllllkkllmllllllmmnqvz++....+xqmkjiihggfihfgfffggihhhhhhhhijjihiiijjkluxwtqpmkkjjiiiiikmlnllllnjmnlklkkjjiiiijiiihifdddeddecdedeeeeedcccddddddddddefhgfeeeeeeeeegjhgjfeeeeefggggiihgimrrnjcbbdg
(PID.TID 0000.0001) //    306 cbbbbcdcccccccccccccccccccccdddeefffggghhijjkkllmnou................................................................................................................ysrrpnmmllkkkkjkkkkkklllmmnpu+++......zqnlkjihggffffgfffgghhihhhhhhijmjhiiiijllxzyuqpomkjjiijkkkllmklmlimlllkkkkjiijiiiiiiigedeefefebeddddeeddccddddddddeedeeeeeeeeeeeefgjjhigeddddeggggikkjiinrrqhdbcee
(PID.TID 0000.0001) //    305 cbbcccccccccccccccccccccccccdddeeffffgghhijkkllmmnrz................................................................................................................zsrsqonmllljjjjjjjjkkllmnnory+........+rnlkjihggfffgnfffgggihhhiihhiikjiiiiiikpz++zqoolkjjjkkllkjjllmnkmmmllkkllkjjjiiiiiigeeeeegdebbedcccddddcdddddddddeeeeeeeeeeeeeefgijhiggfedddeghjkmnnliinrqmfdceff
(PID.TID 0000.0001) //    304 ccddccccccccccccccccccccccccdddeeffffgghhijkllmmnou+................................................................................................................zupurpnmmllkkjjjjjlllllmnoqty+........+uolkjihgggfffgffgggghhhiihhhiiiihhiijjkv+++zpmkkkjjklkklmlklmkmoonomlklmmlkkjiiiiihgfeeeegddbdedccddddddddddcddddeeeeeeeeeeeeeeeghhggggfeefhijkmnpqpmkjosokfbdehd
(PID.TID 0000.0001) //    303 cdedccccccccccccccccccccccccddeeeffffgghhijlmlmnopu+................................................................................................................+vppponmmllllkkjjllllmmnpqtx+.........+xomkjihhggffffffgggghiihhhhhiiiihhiijjkz+++yrolkkkjkkjkklllkloqpppnnnnmnmlkkjiiiiihggeffeddddeeddddddddddddccdddeeeeeeeeeeeeeeeffegggfeffghijkmoprrqollqroiebcehc
(PID.TID 0000.0001) //    302 ccdcdcccccccccccccccccccccccdddeefffgghhiijkllmnpqu..................................................................................................................xqopoonmllllllkkllmmmnprtx+++........+xqmkjiihgggffgffggghhihhhgghhiiihiiiiinz+++zyrokkjiiijkkkkjlmmppopnnmnmmmlkkkjiiiiihgeefdceeeeeeddddeeddeedcdddeefeeefeeeeeeeeeeefgeeefjgghijknpqrsrpnnqrohebcehd
(PID.TID 0000.0001) //    301 cccdcbccccccccccccccccccccccdddeefffgghhijjklmmoqsx.................................................................................................................+yqopnnmmllllllllllmnoqswyz++..........zqmkjiihgggffgffggghiihhggghhhhiiiiiijoz+++zspljjiiiikkkklmmllppommqnnljllkkkkihihijefffdeeeeeeeeeddeeeeccedddeeeeeeeeeeeeeeeeefgfeedegffgghijmprrrrqonqrohdbceif
(PID.TID 0000.0001) //    300 eccbbccccccccccccccccccccccccddeeeffggghijjklmnosw+.................................................................................................................+wpoqnnmmllllmmlllmnprvzz+++...........+umjiiihgggfffffggghhhgggggghhhiiiijjjmtz+zvqqlkiiiijkjjlkkkklonpmoponllkkkkljiiiijgeghfdeeeeeeeeeeeedccdeeeeeeeeeeeeeeeeeeeeeeeeeeeeefeeffgghlmorrrqpnqqnhdbcfig
(PID.TID 0000.0001) //    299 ccbbbccccccccccccccccccccccccdddeefghgghijklmmoqsx..................................................................................................................zuqpqonnpmllmnnnmmnprvz++.+............+xnjiihhgggfffffgggggggggggghhiiiijjjlorzzzxtpnmikjkljijolllkmnlmnoonlmkkkkkkiiiiihgfgiedeeeeeeeeeeecdeeedeeeeeeeeeeeeeeeeeeeeeeddeeeeeeeeeeehllnooqqpppplidbcgif
(PID.TID 0000.0001) //    298 dccbbcccccccccccccccccccccccccddeeefggghhijklnprwz.................................................................................................................+xtqpqpnnnmlmmosvywuuyz++............++.+wnjihhhgggfffffgggggghggggghiijiijklrvwxzzxwqonllkjijjnmmllllnmllnoqmjlnklkkiiihiggefhcefgeeeeeeedcefeeeeeeeeeeeeeeeeeeeeeeeeeeddddceeeeeedehiiiikopppppmhcbcfie
(PID.TID 0000.0001) //    297 cdcbbccccccccccccccccccccccccddgeeeffgihhijklnpsx.................................................................................................................+zvrqoqpnnmmmnpszz+z++++++............++++sljihhggggffffgipgggghgggghhiiilnmovyzzzzywunnnlkkiiiklkkllmnmmmloomlklkllkiiihhgggfgfdegieeeeeedehheeeeeeeeeeeeeeeeeeeeeeeeeedcccdededdeeeegeeefgjlnpqqmgcbcghb
(PID.TID 0000.0001) //    296 eecbbccbcccccccccccccccccccccddeeeeefgghhhiklnptz.................................................................................................................zxsrpptpnnnnpruz++++.+................+++yqljihhggggfffffhgggghhgggghhhiiloqu+++zzzywqllmliijkikkkkklnnnmmlnokmmkllkjiiihhghfggfeggheeeedegjfeeeeeeeeefeeeeeeeeeeddeeeddcbbeedcccdddeeedddefimnprpmgdbdhga
(PID.TID 0000.0001) //    295 dccccbbbbccccccccccccccccccccdddeeefggghijjklnpu+................................................................................................................+ytsqpptppoopsuyz++.....................++xqkihhggggggfffffffgggggggghhhijmnqvz++zywunmkkmkjkjkjjjklkllmnmmmknnlllllkijihgggfgffegghgedddeggfffeeeeeeefgffeeeeeeedddddecbbbdddcccedddddddeeefjlmqrrpgdbdgfa
(PID.TID 0000.0001) //    294 ccccbbbbbccccccccccccccccccccdddeeeffgghijklmory+..............................................................................................................++wusrqppqqqppptyzz++.....................++yqkhhggggfgffffffffhhgggggghhiijlmpwz+zywtlkklmnlkijjijkikkkllmnlmonkmmllkjjiigggghgfeeghhgedddfggggeeeeeeefgfgffeeeeeedddddccbbbbcccbcddddddeeeefhllmqsspgcbdhja
(PID.TID 0000.0001) //    293 ccccbbbbcccccccccccccccccccccddeeeeffgghijklnptz+.............................................................................................................+zwutsrqppprqqrrvz++++....................+++ypjhggffffffffffefgghgggggghhiiklnqxzzyxvpkllpmqlkkkjjkjjkimlmllpojlmlmlllkkiiggggigfefhhhfeddefggggeeeeeffffgffffeeeeeeddddcbcbccccbdddcccdeeeeegjllmqsspgcbdhgb
(PID.TID 0000.0001) //    292 cccbbbccccccccccccccccccccccdddeeeefffghhijlmptz+..........................................................................................................+++zvttsrqpoppqrqttyz+++.....................++ztlhggfffffffeeefffggggggggghhiilprsyzyvvslkllllokkklkkjikklmmklonklnnnnmlkkjjhgghhhffefghgfeddeggggfefeefffffffgffeeeeeeddddccccddddecdcdcceeeeefhkkmoqsrofcbdhfb
(PID.TID 0000.0001) //    291 dccbbbdddcccccccccccccccccccdddeegffffghhijkmouy+........................................................................................................+++zxutsrqqqppprqqqrtyz++.....................++yslihgffffffffeeeeefgggfggggghhhijnqsxzxtskkllmlllkkllkkjklmnlllnkhonnnnnmlkjkjggiihgfeefghgfedeggffeegeefffggfffgfeeeeeeedddddceeeeecccccccdeefgfghikmorsrlecbehbb
(PID.TID 0000.0001) //    290 dcccbbddccdcccccccccccccccccdddeefffffghhijklotyz......................................................................................................+++zxutrrqqqqqppprrrrrsvz++.....................+ztnkihggffffffeeeeefggggggggghhhiiiklqwyxtkjkklpkkkkllkkkkkmlklnkfqnnnnnnnnlmlljhiiiffgffggggeeeghgeefhfefgfgggfffgfeeeeeeedddddeeeeedccccdddeffggfgghjmorsrmeccegdb
(PID.TID 0000.0001) //    289 cdcbbbbccccccccccccccccccccccddddeeeffgghiiklnryz.....................................................................................................++zyutsrqqqqppqpopsrrrrsuz++.....................+ypljihggffffffeefgggffffggihhhhiiiijkowurkikkjjkkkkkkkklkkkjlmllpnnnnnnnnmmmlmkjiiigghhggghhgfefhheefheegggfghfffggfceeeeeddddddeeeddcccbcddeefggfefghjlorsrmecdegdc
(PID.TID 0000.0001) //    288 dccbbbbbdccccccccccccccccccccdddddeeffgghhiklmqxz+...................................................................................................++zyvtsrqqqppppppopturrrrtyz+.....................+xpkjhhggfffffeeefggffffgghhihhiijkllkmopoiiiiiiijkkkkkllkkjmmloqpnonnnnnmllkkkjjiihhjifhggihhggghgefheffggeggeeffgfbceeeeedddddeeeddcccbcdddeefffeefghjlossqjedeegde
(PID.TID 0000.0001) //    287 ccecbccbcbcccccccccccccccccccdddddeeeffghhijlnrxz+..................................................................................................+++zwtsrrqppppppppoprurrrrsuz+.....................+tnkihggffffffeeffffffffghhhhhiilmnnnnnoqliiiiiiiikkllkkkjikkmppponnnnnnnmlkkkjkkiijkihhihhigigggfefggggggegfeeefffe-deeeeedddddeeeddcbbbcddeeefffeffghjmqsrplfeeeged
(PID.TID 0000.0001) //    286 ddeffdccbbccccccccccccddcccccdddddeeeffgghijmruyzz+................................................................................................+++zxutsrrqpppppppooprwrrrrstxz+...................+yrmkihgfffffffffffffffffggghhikkmnponoppqjkjiiiiikkkkkkjjklmmnppoqnnnnnnnnlkklkkjjkkiijihgjghighhffggggggegfeffffeebbeeeeeeedddeeeedccccdcddeeefffffffhjnrrqnjeeeefdd
(PID.TID 0000.0001) //    285 edddcccccbcccccccccccddddccccdddddeeefffghikqtvyzz++..............................................................................................++++zwutsrqqppoooooopprsrrrrrtvz+...................+xpkihggffffffffffffffffgggghhjmostsqoopqplurnjikkkklkkkkkmnnnnpppoppnnnnnmlmlmlkjlkijiiigiihhhgggfhggggfegfegfffeee-edeeeeeedddeeeddcccddddeeeeffffffgilprrpmheeeefce
(PID.TID 0000.0001) //    284 dcccedcccccccccccccccdeeddcccddddeeeeffghknstuvyzzz++...........................................................................................+++++zyvtssrqpppooooonppprrrqrrtvy+...................zrljihgfffffffffffffffffggghhijmpuywsllnmnjkiijjiilllkklmmnnnnnoppopponnnnnmlnmkkllkjjkiigihhhhgffggggggegfefffffegececeeeeeeeedeeeddccdddeeeeeeefffffgjnrrqoljeeeedbe
(PID.TID 0000.0001) //    283 ccdddccccccccccccccccdeedddddddeeeeeefghnqvuuvwxyzzz+..........................................................................................+++++zywutsrrqppoooooonoppqqrqrrtvz++.................+zokihggffffffffeffffggfggghhhiiiovyyvokjhkgiijimptvqlkknnnnnnonopprpqpnnnnllnnlmmmlkklkiiiihhhgggggggggfggfffefffegfcbdeeeeeeeeeefdcccdddeeeeeeeeffffghkorrrpnmgfeeccd
(PID.TID 0000.0001) //    282 bcccdccccccccccccccccdeedddddddeeeeffknpssuuvvwxyzzz++........................................................................................+++++zzwutsrrqppooooooponnooqqqqrtvz++.................yxnjihggffffffffffffgnggghhhhhhiiiryxvojghgiiiiiijlpuwsrtwyvqpppnopqqrpomolmnllnnmllmllljiiihhggggggggggggggffeffefggcbdeeeeeeeeegedccddeeeeeeeeefffgggimprrsqnlfggeede
(PID.TID 0000.0001) //    281 cbcccccccccccccccccccdeeeefdeeeefefloqqqqrtuvvvwyyzzz+......................................................................................+++++zzzwutssrqqppoonooopponnorpqqrsuyz+.................+tljhggffffffffffffgkjgggijhhhhiiimyytlgggiiijijjiijjlnpsuuppoonnnoppoppmpommmonommnmllkkjihhhgggggggfggggggggfeeegggdcdeeeeeeeefgeddeeeeeeeeeeeffggggiimorrsrnleegeeee
(PID.TID 0000.0001) //    280 cccccccccccccccccccccddeeiofeeeefflsrqqrqqruuuvwxyzzz++......................................................................................++++zzwutsrrqqppoonnonooooomoqppqqrtx++................+yqlihggffffffffffffghghghhhhhhhiiir+ukhggihjjjjkjiiiiilmmnmnnnmnnnnnppnnnomlopnopnnnmlllkkihhhgggggfffggggghggfgegggfeddeeeefdcefeeeefeeeeeeeeeefgggggiilnprsqnjedeffhd
(PID.TID 0000.0001) //    279 ddcccccccccccccccecccddegiifffghllprrrrurpruttuvwxyzzz+.....................................................................................++++zzxvtssrqppoooonnnnoopoomnppppqrty+.................+unkihgffffffffffffffhihhiikjjihiilz+vjgggghiiiikjiiikjmkkmmmlmmmmnnnnnopmnnoppppponnmlllkkjihgggggffeggggggggffffggggfeeeeefecbdeeeeeeeeeeegeffeegggggijkmpqrpmhedffgkd
(PID.TID 0000.0001) //    278 cccccccccccccccccddcddegghhghhilnoprtsrpppqssstuvwyyzz++.....................................................................................+++zyvussrpooooooonnnnnooonmnopopqsvz+.................zsmjhggffffffffffffghkhhilnpqnjiiilqqihighhiiijijikjjjiikknlnmmmmmnlmonomompppppopnnnmlllkjiihgggggfgfhgggggggggggggggffeeeeedbbcdeeeeeeeeeffglfegigigiijkmpqpnliecfegjd
(PID.TID 0000.0001) //    277 bccccccccdcccccccddefgghhhhhijlmosqotolllmooprrsuvxyzzz+......................................................................................++zxvusspoooonnnnnnmnnnoonmnopqqrsz+.................+yqljhgfffffffffffffhojhijpvyyumjiiikigiggiihiiijijkijkiijklkmmlllllmnmlmnnnnnpnnpponnnmmlljijigihhggefgggggggggggfgggggfeeffecbbcdeeeddddeeffggeehgghghijknppomkjedeeghe
(PID.TID 0000.0001) //    276 bcccdccccccccccdeffghhhhhhiijkmnppnkjjijkllmnopqtuwxyzz++.....................................................................................++zwvtsronnnnnnnnnmmmmnnnmmnoprrsvz+.................+xqlihgfffffffffffffgihiikqx..xqkiiilggigghihhiiihijijijiikjkllllllmlllmmmmmnnnnnopomlnmmlkjjlkgjigffegggggggggggeegggggeefffdcbbddeeedddeeegffeefggggghijknppomkjedeegie
(PID.TID 0000.0001) //    275 bcccccccccccccddffghhhhhhijkkmnnnmkihhiijkklmnoprtvwyzzz+.....................................................................................++ywvusqnnnnnnmmmnwommnnmmnnnprtwz...................zvokiggffffffffffffgghhhijnsxzvojiijhghhhikijjiiijihhijijjijkkkkkkkllnmlmmnnmmnnnpppnmnnmlkjljjhihegffgghhggggggefghggggfffffdcbbdeeedddeeegefeeegggggghijlnppnmkkeeeeghf
(PID.TID 0000.0001) //    274 cccccccccccccddefffggghiijklmnnnnkhhhhhijjkklmnprsuwyzzz++....................................................................................++ywvuspmmmmmmmmmptpnmnmmlmnnoruz+..................+ztmkhgfffffffffffffghhhhiiknqqoljijhhgghighhhghhhihjhiiiiijkjjjkkjklmklmlmmmlmnmmnnponnlllkllkiihgggfhhhhhhggggfghgigggggfffedbbbcddeddeeeggfeeeggggggghijlnppnmkifeefggg
(PID.TID 0000.0001) //    273 ccccccddcccccdeeefffggijklmmnnnnnmihhhhiiijkklnoprtvxzzz+++....................................................................................+yxvtsommmmmmmmtvqpnnnmmlnnooqtz+..................+yrmjhggffffffffffffgihhhiiikkkljijlggggighihihijhhhiihigkihiiijkikkjlkkkklklnmnnnopnpmllkjkijjjhhhihiihhhhhgggggghiigggggggfedbbbcdeeeeeeggeeeefggggggghijlnponmkjfeefggg
(PID.TID 0000.0001) //    272 cccccbcddddccdeeefffghklnnoonnnnnmingghhiijjklmnoqsvxyzzz++....................................................................................+zxvurommlllllmnoonpnmmllnnnnpuz...................zvqljhgggffffffffegghihhiiiiiiiiiihgggghegggghihjghiihhijjiiiiijjkkjmkkjkkkmnnnnnnopmonmljjkjjhhhgiihihgiiihgggfggijigggggggfecbbcdeffeeeegeffeegggggggghijkmpnnnlifeeegef
(PID.TID 0000.0001) //    271 cccccbcddddddddeeeffgilnnoqpoooookhhgghhhiijkklmoprtwyzzzz++...................................................................................+zxvurommllllllmnmnnwmmmlnnnmnqz..................zyrnkihgggffffffffeeggiihiiiiiihhhhggggghgghihggfjghihihigigiihijiihkijjjkklljmnmmnmlmomkkknkihiigijihhhhiiihggffggkjhgggggggfedccdefgggeefefgfeggggggggghiiinonnnlhfedeeef
(PID.TID 0000.0001) //    270 ccccccdddddedddeeefgiknooopppspkhhhhhgghhiijjklmnopsvyzzzz++...................................................................................+zywuqonmmmlllmmmmmmmmmmknnmmmnw+.................+xpljihhggfefgfeefcfgggihiiiiiiihigggggffgghfifffigihijiihkggiihijijhhiijijkjklmnmmmnplnnkmlkkjhgjjkihhhhiiihigfgghhgggggggggffedeefggggefefggefggggggfgghhijnnnnnlgedddeee
(PID.TID 0000.0001) //    269 ccccdddddedeeeeeefghknooppppqqngggghggghhhijjkklmnpruyzzzz++....................................................................................zywuqpnmmmmmmmmmmmmmmmmkmmmmmmr+.................+voljihhgggfgggfegdffgghhhijiihihgggggfggegfhghhiijjjhiiijjghhggjihhghiiijkjjklllmlmpmopnmlkkkiiiikiihhghiihgheiggggggggggggggffeffghhgefefgfefggggggffgghhhjnnnnnjgfddeefe
(PID.TID 0000.0001) //    268 cccdddddddddeeeeffhjloppqqpppojgfiolhggghhijjkklnopsuxyzzz++...................................................................................++ywtqpnnmmmmmmmmmmmmmmmklmmmmmpy+................ztoljiiiggggghhegfdgffgghhiihiihggggggefegfggigffggiihhiighijihjkiiihiiiiiiijkkkkmnmnnnpmlkkjjjhijiiihghijigghhihgggggggggggggggffgghgeffgggeggggggggefggghilnnnnmhhfedeefe
(PID.TID 0000.0001) //    267 bccccccdddddeffffhijlopqqqqpqoiffinrhggghiijjkklnopsuwyzzzz+...................................................................................++yvsqpnnnnnnnmmmmlmmmmlklmmmmmorz...............+zsnlkiijhfggfgeefcdgfffgghhhijlggggfefffeefggfffhhghggjighiikihhhiijjjiiiijiikkjkljonnoolnkjjkijmiiiihiijjghhgggihgihgggggghhhhgggihgegggggefhgggggggefggghimnnnmmihfddeege
(PID.TID 0000.0001) //    266 bbcccdddddddefefghijlopqrsrppnjffggggggghhijjkklmoprtwyzzzz+...................................................................................++yvrqponnonnmmmmllmmmllkllllmmnqy...............+yrmkijijjggjfeeeeeddfgfggghhjfggggfefggfeeeeeefgfhgggiihhhjghfhhhihjiiiiiijikijkjjmnmomlnmklmklokjiijiikihiighiiihihghggggghhhhihhhgeggggggggfggggghffgggghionmnlkkifedeege
(PID.TID 0000.0001) //    265 bcdfdddddddddddfgghjlnpqstsqpnlhffhgfggghhiijkklmnoqsuxzzzz+...................................................................................++xurqqonnnnmmmmlllllllkjklllllmqx...............+xqljiiiiigigfeeeeeeedfffggggegggffgggggfeeeeeeggffgfgggggiifehhgihhiiiiiihjjjkjjlkmlnonnllmnlimljjijkikiiiiiijjihihiiigggggiihiihggfgggggggggggggffhefgggghionmmlkkifedeege
(PID.TID 0000.0001) //    264 ccdddddddddddddeeefjlnoqstttpomjgfffffgghhiijjkklmnoqtwyzzz+...................................................................................+zwurqqnnqommmmmlllllllkkjllllllox..............+zrokiiiighhgffeeedddeedgfffedgggffeeeeffeeeeeedefgegfeggggigghhhhhghiiiiiigijigijmllkjjmmomnlkmlkkjikkjjijkiiiiiiiiiiiihhghihhhihggfgggghhhgghhggggggefgggghimnnpnmlhfeefefe
(PID.TID 0000.0001) //    263 cccdeddddddccdddeefhkmoqsttssomkhffeffgghhhiijjkllmoqtwyzzz+...................................................................................+yvtqppmmnnmmllllllllllkkjjkkkkkmt..............+xokjiiihggggfeeeedeedeefgfecggggfffgeeeeeeeeeeeefgcefghhheihhggggggiihiiijkkiijmkjkkllmmoonllnllmkkkkjjkkjjiiiiiiiiiiiiiighihgihggghgggghhhghgggggggeeffggghjnppqpmmigeegfee
(PID.TID 0000.0001) //    262 cdcddddddddccccdeefhjmnrsttuspnjgfeeeffgghhhiiijklmnqsvxyzz++................................................................................++zxvsqqqmlmmmlllllkkkkkkkjjijkkjjkq+............++uljihgggfggfeeeeedeedddeeddfgggffeeeeeeeeedeeeeeffeeffghgfifhgggfhggghhiiiihikkjjljlklmnnopnmlkmlkkljkkkllkiiiiiiijjiiiiighiihhggghghgggghghhgggggggfgfgggghjmqrrpnnigeeegeg
(PID.TID 0000.0001) //    261 cccddddddddccccddefgkjlpsuvwtqnjffeeeffgghhhhhijkklnpsuxyzz++..............................................................................+++zywvrrrqmlklllkkkkkkkjjjjjiijjjjjknv............+zplihgffffffffeeeedddedddddegfeffeeeeeeedddddddeeeeeegeeegggfihgffhhhhghhhgiiiiilmjkkikllnonlkmlmmllljkkjklkjiijjiiiijiiiihjihhgggfhghgghhghgggggggifggggggggimqrsqomigfeefgf
(PID.TID 0000.0001) //    260 cdddddddddddccdddefflilosvvusonkgfeeeffgghhhhhhijklmoqswyzzz+...........................................................................++zzzzzxwsrrqqnlkllkkkkjjjjjiiiiiijjjjjkmry+.......++++ynkhggfffffffeeeeedcccdcccdgfeeefeeeeeedddddddddedeeefeeffgehfggefglhgigfhiiiiihiijillkmmnnlmollkllmkkkjjkkkijjiiiiiiiiiiiiiihgggfgiiihgiihhgggggggigggggggghjmqrtsonjgfeefgf
(PID.TID 0000.0001) //    259 ddddddddffeddddeeefgillptvvtrlkjgfeeefffggghhhhijjkmoprvyzzz++........................................................................+zzyyzzzywtssrqqolkkkjjijjiiiiiiiiiiijiiiklnqz++...++zz+zuligggfffeeeeeeeeddccbcdcbdeeeeedeeeddeeddddcdddedeeeegecefegehfffhhggfghhgghghgijljjlkmllnonlmjlmkllkkklkiijhijiiiiihhiiiiihgggggiiiiihiihhgggggghhggggggggijmpsutnnkgfeefgf
(PID.TID 0000.0001) //    258 dddddddddeeeeeeeefgikkmqsvxsojihgfeeefffggggghhiijkmnpsvyzzz++.......................................................................+zyyyyyzyxvtssrqqqmkjjjjiiiiihhhhhiiiiiiiijknqyz+++++zxxxupihggfffeeddddddddccbcdecdeeeedeedddddddddcccccdddeededfdeghcfhdfhfghgfghhggghiihkklllnmmmmnonlkmlmnlkkkkjkijjkjiiiiihiiiiihggghhiiiiiigiihhhhggggggfgggggggikmpstunnmggeefgg
(PID.TID 0000.0001) //    257 ddddddddddeeeeeffgiklnpstuvslihgfffeeffffggggghhijkmnpsvyzzzz+......................................................................++zyyyyyywwvtssrrrqnkjijiiiihhhhhhhhiiiiiiijloptyz++zzvtutrpjhgfffeeeddddddddcccccddeddddeedddddddddccccccddcedddedeefiehgehgegfegghggghkiijlkmlmllhnomoolmmlnmllkkjjjkkkjjiijkiiiiihhghhhhiiiiiiihiihhhhgggggghgggggggiknqrttnnlggefggg
(PID.TID 0000.0001) //    256 degddddccddeefgihikmnoquuuuuohgfeffeeeffffgggghhijklnqsvyzzzz+......................................................................++zyxxxxwwwvtssqrrrnjihiiiihhhhhhhhhhhhhhiiiknpquxzzyvtrqqrnkigffgfeeddddddddcccbeddddccddddddddcccccccccccdccccbcfefehfgcggfffffggghgikjjkkllklhhlonnnllmlmmnnmmmlkkkkjikkjiiiiiiihhgiihghiijiiihgihhhhhhhiggghgggggggilortsromjhgfgggg
(PID.TID 0000.0001) //    255 ddeddfedddeeehknmjlnprrrssvrjfeeeefffffffffggghhijklmprvyyzzz+.......................................................................+zxxxwwwwwutssqrrqjhggghhhggggghhhhhhhhhhijlmnoruwxusrqpponnkhffffeeddddddddccbcdddcccccddddcddddccccccdbbdcbdcccfhcffehfggeghggggghilijiiknkhlkllmkllkmnpmmnnonnnmmlijljkkjkiiiiihhiihghiiiiiihhiihhhhhhhhghfggggggghilorqrqnkgggfgggg
(PID.TID 0000.0001) //    254 ddddegfddeeeegkonmmnqrrrnklhfddeeeffffffffffggghijklmoquxyyzzz+......................................................................+yxxxwvvvutttsrsrnhggggggggggggghhhhhhhhhhjklmoqsttsssqqqppomifffeeeddddddddcccccccccccccddddeeeeccccccbbcccddbedddeeefghggghhhkigghhikkjllhimmlmkkllkjlnmopmmnnnnnnlklnmkkkjjiiiihhhgghiihiiiihiiihhhhhggggggggggggghjmoqqspnjgggggggg
(PID.TID 0000.0001) //    253 dffdeffeeffffhlopoopnpljmfeeddddeffffgfffffffgghhijkmoqtwyyzzz+......................................................................+xxwwvuuuttttsrsrlggfggfffggggggghhhhhhhhhijjlnqrtttustsrqqpnjggffeeddddddddccccccccbcccccdddeeeedddcbbbbbcfecdegecfeeiggghikiihjiijkmommkgonlllkjkkijmmllnonmmmnnnnlmklmmjijjjiihhggggiihhiiijhiiihhhhhiigggggggggghhjmopstplihggggggg
(PID.TID 0000.0001) //    252 eeeeefffffffgilnppppjhhigeeeeddeefeeffffffffffgghijklmpruwyyzz+......................................................................zwwvvuuutttsssssrmgfggffffffggggggghhhhhhhiijkpttuuutwvtsqrrqmijgfeedddddddddccccccbcccccddddeeeedddcbabdcgcccdhgdcghghiekjiiilkjlhjlmlkjhjnlkkijjlkillllklmnnmmpnmlmnmnljijjjjjiiggghiihhhiiiiiiiiihhiiigghhhgggggghhjlnottnjhgggggggg
(PID.TID 0000.0001) //    251 deeeffggfffghjmnppokhffffefffedeeeeeffffffffffgghhijkmoqsuxyyzz+....................................................................+yvvuuutttttsssssrogggffffffffgggggggggghhhhhijptsstsstwvtrrrpnljhgfedddddddddcccccccccccdddedddeeeddebcdbcgcddcfefdfffjfiijjjllmpkkmlmghihjlljiijkjikllllkklmnnokmmnnnnlkjkkkjjjiiggiihgghiiiiiiiiiiiiiiihhhhgggggghhhikmqtsniggggggggg
(PID.TID 0000.0001) //    250 deefffggggghilooomjhfefffffffefeeeeeeefffffffffgghijklnprtvwyzz+....................................................................+wuuuttttttssrsstrngffffffffffggggggggggghhhhhjpsrrqrsuutsrrqqoonkgfedddddccddcccccccccdddddddddeeccccddbaegfgcbfedgkeiiijllklmommkffhhillkjljiiijjkkijlkkkkkllkikkmnpnnmjkkkkkjjiigiihgghihiiiiiiiiiiiiihghhhggggghhhhiknrspkgggggggggg
(PID.TID 0000.0001) //    249 eefffffggggikmomkhffeeeefffhieeeeeeeeheffffffffgghhiklnprsuwyzz++..................................................................+zwuttttttsssrrsssrjgffeffffffffgggggggggghhhhikprqprqrsssqqrqqqponjffedddddcddcccbccccdddddeddddddcccddbbbeeggcdhcfiiekijllijnigiiggkmoljhjkiiiiiijkiijllkkkkkjiijlommonjkkkkkkkjjiijhgghiigijiiiiiiiiiihhhhhggggghhhhhikoqpligggggggggg
(PID.TID 0000.0001) //    248 eeffffggghhilnnnjgfeeeeeffffeeeeeeeeffeggffffffgghhjkmnoqtvwyzz+++.................................................................+yvttttssssrrqrsssqhgffefffffffffgggggggggggghjmqqppoqqqppoooppqqponggfeeddddddccccccddddddeeeeeddcccdcedbcefggdfcdighgmlijhhkmlkjhilljkihikiiiiiiikkiiikkkjkkiijklnloomjlkkklkkkjjjkighiiiiiiiiiiiiiiiiihhhhhgggghhhhhhiknnlkhgghhhhhhhh
(PID.TID 0000.0001) //    247 fffffggghhijmmlomfeeeeeeeffeeeeeeeeeeeeffffffffgghijklmoqtwxzzz++++................................................................+xusssssssrrqqrssrngffeefffffffffffggggggggghjkpqprqqnoonnnmmnoprqpnjggeededddcccccddddddeeeeeeecdcdbbbddecegfffhhjjmljlihhmlnmllgiiljmjggiihhhiiikjiiiiiiikjiikkkllmnnikmmlllkkkjjkkghijiiiiiiiiiiiiiiiihhhhhgghhhhhhhhikllkihiiiiihhhhh
(PID.TID 0000.0001) //    246 fgggggghhiijmnjlledddeeeeffeeeeeeeeeeeeeffffffgghhijklnoqsvyzzz+++++..............................................................+zwtrrssssrqpoprssqkgeeeeefffffffffffggggggggijkppqqpnnnnmmnmmnnoppomkfgfededddddddeeeeeeeeeeeeeeedccbbdegfcdgieiljfjmklggkklkkjhgfhihhihghhhhhhiiijiiiiiiikkjijkkklllljmnlklllkkkjkkikijjjiiiiiiiiiiiiiihhhhhhhhhhhhhhhhijllljjjjjjiiiiii
(PID.TID 0000.0001) //    245 gggggghhikllnopgedccdeeeeffeeeeeeeeeeeeeeeffffghhijjkmnpqsvyzzz++++++............................................................++yusrqrrrrqpoprrssohfeeeeeeffffffffffffffffghijkoppqonnnnmmmmmnnnoonmkhefeedddeeeeeeeeeeeeeeeeedcedcdcdefggcdghehmgijmjglkjijjihfeegggfgggihggghiiiiiiihiiijijiijjjkjjlmlommnmllkjjklkkjjjiiiiiiiiiiiiiihhhhhhhhhhhhhhhhhijlmmmlkkkkjjiiii
(PID.TID 0000.0001) //    244 ggggghhijknnnopgcbbcdeeeeeeeeeeeeeeeeeeeeeeffghhiijklmnoqsuxyzzzzzzz++..........................................................++zwtsrqpqrqqpqrrssrmhedeeeeeeeefffffffffffgghhjmnppqponnnoonmmmnnnnnnkjifeeeddeeeeffffffeeeeeedbdefedbcegegdddheeikfjgpjhlihjhigggeghghggggihggghhhhiiigiiiihijiiiijijkklmnnlmnmljklkkkkjjiiiiiiiiiiiiiiihhhhhhhhhhhhhhhhhikmopqponmlkkjjkk
(PID.TID 0000.0001) //    243 gggghhhikmonoolgcbbcdeeeeeeeeeeeeddeeeeeeeeffhhiiijklmnopsuxyzzzzzzzz+.........................................................++zwutsrpppppppqrssrqmhedeeeeeeeeffffffffffgghiiknppppooooqqpponnnnnnmljiifeeeeeeeeeehhgfgfeeeeeccfggedddfhegggghfdilcelmkghhefghegegigggfffgigggghhhghhgiiiihhiiiiijjkllllmmonnnmjkklnkkjijiiiiiiiiiiiiiiiihhhhhhhhhhhhhhhhikmoqssrpnmllllll
(PID.TID 0000.0001) //    242 gghiijijkmqpqqmiecccdddeeeeeddddddddeeeeeeffghhiiijklmnopruxyyzzzzzzz+........................................................++zyvutsqpooooooprrrrqnjeeeeeeeeeeefffffgfggghijjknppppoooptsrqpnmmmmlkjhgifeeeeeeeeeefffffeeeefddefffeedcifefdihigihlfjlljflhefejdefigegfefghhgggghiggggggiiihiiiiijijjkljlllmmnlkkklllkkjlkjiiiiiiiiiiiiiiiiiihhhhiiihhhhhhiknprttsqommnnnno
(PID.TID 0000.0001) //    241 fgikklkkkkoppttqjecdddddeeedddddddddddeeeeffgghhiijklmnopqtwyyyzzzzzzz+.......................................................+yxwtttsqpoooooppqrrrqmleeeeeeeeeeefffffggggggijkmpqpppoppqstrqpnmmlljihgggfgeegeeeeefffghffffgieefegfffecifggciikhlhphmjjfflffhffdegfeefefgghggggghhgggggiighiiiiiiiiiiklkijmmnmlmlmmllklmlkimjiiiiiiiiiiiiiiiiiiiiiiiihhiiijlnprssrqpnnoooop
(PID.TID 0000.0001) //    240 ghjmonlllljptvwtkeddeeedddddddddddddddeeeeefgghhhijjlmmnoqsvxyyzzzzzzz+......................................................+ywvusqrrqpooooopqrrrrqojeeeeeeeeeeeefffffffgggijlprqpppppqrstrqpommljhggggfffeefeeeeefffffefgiigfgghgheeecgehgcgiiikkohkhgfggfhffeefeeffegggggggggihggggghhfihiiiiiiiiiiijjjiikllnnnnnlmmllkklkiijkiiiiiiiiiiiiighiiiiiiiiiiijmpopqrrqpppqqppq
(PID.TID 0000.0001) //    239 hiloqqrkjhhmqvurheeeeeeedddddddddddddeeeeeeffghhhijjklmnnpruvxyzzzzzzzz.....................................................+zwspppooooooooooprrssrrojeeeeeeeeeeeefffffggggiijorrppppqqrsttsqponnmjhgffffffeeeeeeefffeeeegiighhfihggecddgfifdhmkkiokggifgiejgefegeeggggggggggggifhggggghhgghhhiiiijjijkkkkijilmmnnnmnnmllmllijjkjiiiiiiiiiiiiihhiiiiiiiiiiiknonoqrrrqqstsrrr
(PID.TID 0000.0001) //    238 iijmqplhgghkosriedeeeeedddddddeedddddeeeeeeefgghhijjklmnnoprtuwyzzzzzzz+....................................................+uqoonnnnmnnnnoopprrssrrnideeeeeeeeeeeeffffgggikjkosrppppqqrsssrqpponmiggffffffeeeieeefeeeeehihghihegffgfddfiilhelnlglnhihhigehgehfeeefgfgfggggggegfhgggggghggihihihgikhiijkjikljmlmnnlmmmmlllllkkkkjjiiiiiiiiiiiiiiiiiiiiiiiiiknnnqsrssrrssrqrr
(PID.TID 0000.0001) //    237 lmkjjhgggginqrpgddeeeeedddddddeeeeeeeeeeeeeeefgghijjklmnooopqrtxyzzzzzzz+..................................................+vqoonmmmmmmmmnnoopqqqponjgdddeeeeeeeeeeffffgfgjoklrsrqpppqqqrrrrqpomljhggfffffeeeejfeffeeeeiihgihifeghgggfeiikmgenjhknkigkghheiefgeeegfeeeefgfeffffhggggghhfgghghihiihhihiiiikjjkllmmnmmmmmmlllklmkkjjjiihhiiiiiiiiiiiiiiiiiiiikmnpsuuutsrqpppml
(PID.TID 0000.0001) //    236 lmjhggggiiijrrlfeeeeeeedddddddeeeeefffffeeeefffghiijkllmmnoppqtvyyzzzzzz+.................................................+wqponmmmmmmmmmmnooopponljheddddeeeeeeeeeeffggfgiikorsrqqqqqqrrrqqpomjiigggfffffffegheeeeeeegigghgfgefffgggghjjmniikggpnjidjfhcehfgeeegfegfeeggegfefggggggggggggghhiiiiiiiiiihkjkkllmkkmmmmmmmmmllllkkkjjjiihiiiiiiijiiiiiiiiiiijkloqsuuutsqommnih
(PID.TID 0000.0001) //    235 kiggggghjiiqrogffeeeeedddddddeeedefhffffeeeeeffgghijkklllnnopqtvxyyyzzzzz+...............................................+xronnnmmllllllmmnnoooonlkmkfddddeeeeeeeeeeffggghiiloqrrqqqrrrsrrppomkiiihgggfgggfffeffffeffgiigigeeggehgfidigmlnnipmghlkkkcffgcigefeefgegeeefefgffgfgggggggghgghghhghiiiiiiijkiiklkjjlmllmmmmnnnmllkkkkkjjiiiiiiiiijjiiiiiiiiiiikkmortuuutsomkkkji
(PID.TID 0000.0001) //    234 iggghjggiorqlhffffeeeedddddddeeeefnsgfffeeeeeffghhijjklllmmnoqsuwxyyzzzzz++............................................+zvrponmmllllllllmmnnnopppponkgeedddeeeeeeeeeefffgiijlprrrrrrrrsssrponnkjjjiihhgghggggffffffffgiggfeffhgghffjfjhjknmeqkghkhngcdjfdhfeeeeefgeffeegfefgffgggggghhggghhggggfgghiijkjijkkkkklllmnnnnoonnllmmkkkjjjiiiiiiijjjiijkiiiiiiklkmprtuutrrolkkkji
(PID.TID 0000.0001) //    233 hggghiggipqpiffffeeeeedddddddeeeefiigffeeeeeeffghhiijkklllmnopqsuwyyzzzzzz+...........................................+ztpoonmlkkkkkkkllmmnnoprrrrqplgeedddeeeddeeeeeeffgiiijkprsssssssssrponnlkkkjjjiiiiihhhggggggeeegefegihkgfheiihkfjinleoifihhkicdkdgfeefeeeeeffeegfeffgggffgghhgghggiggfefhiiiiihhijkkkkklllmnooooonnnmlllkkkkjjiiiiijjkkjijljiiiiikmmlnpsttsrqpnlkkjii
(PID.TID 0000.0001) //    232 ooigggghjqrkgffffeeeeeddddddddeeeffffeeeeeeeeffghhiijkkmmllmnoopsvxyzzzzzz+..........................................+zvqonnmlkkkkkkkkkllmnpqsstrrrpjfedeedeedddeeeeeeffgiiiikostuttttttsrpononmlkkkkjjjjiiiiihgggggffgeffhihjfhigkhkihojnlfmhfighijcdhdhefgfeeeeeeefgeehgfggeghhggggggggggefhihiiiiggiijkkkkkllmnoooooonnnmllkkkjkjjjiiijjkkkjiklkkmomilnmlnqstsrpomlkkjjii
(PID.TID 0000.0001) //    231 srlhggghmrrifffffeeeeeeeddddddeeeeeeeeeeeeeeeefgghhijkkmlkllmnnortvxyzzzzz+.........................................++wqonnmlkkkkkkkkkkklnnprtutsrroifeddedeedddedeeeeefghhiilqtuvvuuutttrponnoomlkkkkkjjjiiiihgggggcgeeeifigkgiiimgjihmgmkgohfgghjhcgefhfffeeeeeeeffceggeggegggggggggggggghihghiihhghhijkkkjkllmnnoooppoonmlllkkkkkkjjjjkkkkkjklqqpnlkilnllnqsssqpnlkkkjiii
(PID.TID 0000.0001) //    230 rrlhgggirupjffffeeeeeeeedddddeeeeeeeeeeeeeeeeeffgghiijkkkjjklmmnpqsvyzzzz++........................................+zwqnnmmkkkkkkkkjjjkklnprtuuutsrohfeddddddddddddddeefgghhikqtvvwwvvuutrqonnoomlkkkkjjjjiiihhhghigcfeeffhhiihjjkmiilhpgliilfggghggcgdgeeefefffefgeegfefggffgggggggggggegggggghihigggiijiiiiklllmnnnnopoonmllkkkkkkkkkkkkkkkkkknnnmllljlmllnpqqqpomlkkkjiii
(PID.TID 0000.0001) //    229 rrjggfglstplhfffeeejgeeedddddeeeeeeeedddeeeeeefffgghijjjjijjkllmnoptwyzzz+........................................+zuqnmllkkkkkkjjjjjkkmmnqsttuutsrohfedddddddddddddddeefgghikqtvxxwwvvutsqonnonlkkkjjjjiiiihhhhhhhfdeeeeeigkiikklljjkhmgmhjheggghgeefegeffffgfegfeggeegggeefgggggggggffggggghhiihgghhiiiiiimlkkllmmnnnoponmllkkkkkkkkkkkkkkkkkkloolllkkkklnnooponnmlkkkkiii
(PID.TID 0000.0001) //    228 mkhgfffhhiomiggfeeehgeeedddddddddddddddddeeeeeffffgghhiiiiijjkklmnorvyyyz+......................................++zupnmlkkkkkkkjjjjjkklnoortuuuutsrpjeeddddeddddddddddeeffghimruwyxxwvvutsqponnmkkkjjiiiiiihhhhhhhhfceeegehgihinmlmlmjkkgmjiffgggggcfdffeffgfefgefgfeefgfefffgggggggfffggggghggiigggiiiiiiiljkkllmmmnnoooonnmlllllkkkkkkklmkkkkkklolmqlkkklnnnnnnnmllkkkjiii
(PID.TID 0000.0001) //    227 ihggfffffgjjhggfeeeeeeedddddddddddddddddeeeeeefffffgghhhhhhiijjkklnpswxxzz+....................................+zvtpmllkkkkjjjjjjjjkkknpporrtuttsrqlfeddddddddddddddddeeffghinqtvxxxxwwvusqponnmkkjjiiiiihhhhhhhhhhfdefhjgigigjqllolmipigmihgfgggefcedgeeegeeffegfeeegfeggfffggggggffgggggghhgggfggiiiiiiikjjklllllmmnoooonnmmllllklkklkkkkkkkkkkklmnmkkkkmnnnnnmllllkkjjiii
(PID.TID 0000.0001) //    226 gggffffffgggffffeeeeeeddddddddddddddddddeeeeeeefffffgggghhhhhiijjlloqsvwzz++................................+++zwqomkkkkjjjjjjjjjjkkkmprqpprtttssrpkedddddddddddddeedddeegghjnpruuvwxwwvusqponnkkjjiiiihhhhhhhhhhhihdegkijkhjimrlmnmmjljgmggggggefccdfeeefffgefggfgfffeggggffggggggggggggghhigfeggiiiiiiiikikkklllllmmnooonnmmmmllkkkkkkkkkkkkkkkkkllkkkkklmnopomkkkkkkjjiii
(PID.TID 0000.0001) //    225 ggffffffffffffffeeeedddddccdddddddddddddeeeeeeeeffffggggggghhhiiijlnoprwzzz+............................++++++zvrnlkjjjjjjiiiiiiijkknoqrqppprrrqqqpjedddddddddddddeeddddegghjmoprrtvwwvvurqppomlkiiiiiiiiiihhhhhhhiiefikgljimnpskjomnkkihlegggheegbdeeeeeefgfggfggffefgggggfffgfggggggggghhiggfgghiiigiigjjikkkllklllmnnooonnonmmllkkkkkkkkkkkkkkkkkkkkkkklmoppolkkkkkjiiiii
(PID.TID 0000.0001) //    224 ggfffffffffffffeeeedddddccccdddddddddddddeeeeeeeefffffggggggghhhiijklmptyzz+++............++++++++++.+++++zzzxsplkjjijiiiiiiiiiiijlnoprtrqpppppppomjedddddddddddddeddeeeefghikmopqsuwvvwurqpponlkiiiiiiiiihhhhhhhhhkefjkfojjnnoqjmrlnmjghiegggfeedcdeeeeeeegggggggfefgggggfffffffggggggghhihghgghhiihiighiijkkkkkllllmnoooponnnnnlllkkkkkkkkkkkkkkkkkkkkkklmoonkkkjjjjiiiiii
(PID.TID 0000.0001) //    223 gfffffffffffffeeeeedddddcccccddddddddddddeeeeeefeefffffggggggggghhijkmnqvyz++++......+++++++++++++++++++zzyxspmkjjiiiiiiiiiiiiiiijmopprrqppoooooomiheddddddddddddeeeeeeeeeggikqqpqstttuutqpponnljiiiiiiijiihhhhhhhgkfiljhoilpllnnoqlmnigjheggfeffccdefffedefggggggggggggggggggffffggggghhiihghhhiiiiiihgiiijkkkjkkkklmonoooponnnmlllkkkkkkkkkkkkkkkkkkkkkklmnnkkjjiiiiiiiiii
(PID.TID 0000.0001) //    222 fffffffffffeeeeeeddddddccccccdddddddddddddeeeeefeefffffffggggggghhijkloqrwyyz+++..+++++++++++++++++++zyxutsonjjiiiiiiihhhhhhhhiiijlmoqqpoooooooookgeddddddcccddddeeeeeeeeeffgkrrqttsrrssrqpoomkjjjjjjijiiiihhhiiihgkgjlkhmimlloomnohllhfjheggeegdbceffffedeffffgggiggggggggggggffggggghhiiihhhhiiggiihhiiiijkkikkjklnmmnnopnnnnnllkkkkmmnnmkkkkkkkkkkkkkkkklmlkjjiiiiiiiiiii
(PID.TID 0000.0001) //    221 fffffffffeeeeeeddddddddcccccddddddddddddddeeeeeeeeeffhfffffffgggghhikmnoprvxzz+++++++++++++++++zzzyyxwuspmlkjihihhhhhhhhhgggghhiiiilnopnmnoonnnnmjfdddddcccccddddeeddddeffffgimopprrqqqrqpoonljjjjjjjjkjiiiiiiiiiigkejmllohklmqokolhllgekfhggefeccdefffeceeffffghigggggggggggggggggggghhiiihhhihgghihhiigiiijikkiiilmnnnnnppnpnmlkkllloppomkikkkkkkkkkkkkkkllkjjjiiiiiiiiiii
(PID.TID 0000.0001) //    220 fffffffeeeeeeddddddddddccccddddddddddddddddeeeeeeeeffffffffffffggghijlmnnoqrxz+++++++z++++++zzyxwvuutspliiihhggghhhhhgggggggghhhiiijmnolkkmnnmlkkifddccccccccddddddddedegggghimonprpnopoooonloijjjjijjiiiiiiiiiiiihifkonnnimmmpminjhllgfiefggefdbdeffffeeeeffgfgiggggggggggggggggggggghiiighhhhgghigiigghiiiikkiiijmnnnnnopppnmllklmmnoonmkjkkkkkkkkkkkkkkkkkjjjiiiiiiiiiiii
(PID.TID 0000.0001) //    219 fffffeeeeeeeddddddddddddddddddddddddddddddddeeeeeeeefffffffffffffgghijllmmnqvyz++++++z+++++zywutttssrnjihggggggggggggggggggggghhiiiijjjkkkkkkkkjjiedcccccccccdddddddeedeefgghijmmmnmnnnnnnmllmjjjjiijigijkiiiiijkikhgmqjjmholkpkimjikjghieefgeedeeefffeeeeeffgggghigggggggggggggggggghhihgghhhhhhgghghiiiiiijjijijllnnnmnoopnnmmmnnnnnnnmlikkkkkkkkkkkkkkjjjjjjjjjjiiiiiiiii
(PID.TID 0000.0001) //    218 eeeeeeeeeeedddddddddddddddddddeeeeddddddddddeeeeeeeeeeeffffffffffgghiijjlmnpqtxz++++++++++zzvttsrrqnkgggggggggggggggggggggggggghhiiiiijjkkkkkkjihgdcbbbcccccddddddddedeeefgghijllmmnnnnnmmllllijkkhjigiljjiijjkkiimghmqgpohpkkojjlijhhfhieeeeeeeeefeeeeeeeeegggggiiggggggggggggghhgggggggghhhhghgghfhhiiiiijiijkiklmnnnnmomlnnnnnnooooonlikkkkkkkjjjjjjjjjjjjjjjjjjjjjjiiiii
(PID.TID 0000.0001) //    217 eeeeeeeeeddddddddddddddddddddeeeeeeddddddddddeeeeeeeeeeeffffeffffggghihijlmmmnswy++++++++zzxutsrqomjggfgggggggggggggggggggggggghhiiiiijjkkkkkkjifeccbbbbcccdddddedeeeefeeegghhillmnoononmlkkkjikkjikhjkjkkjkkkkjkkpgimmfpoiojkojkkgigiehheeeeeeeeeeeeeeeeeeefgfggggggggggggggggggggggggggghhhghhgfghhhiiiiiiijkkiklmmnnnmllmnooooopppponjjkkkkkkjjjjjjjjjjjjjjjjjjjjjjjjjjii
(PID.TID 0000.0001) //    216 eeeeeeddddddddddddddddddddeeeeeffeeeddddddddedeeeeeeeeeeefgiffffffgghiihikkllloquy+++++++zywusrroligffgggggghhhgggggggggggggggghhiiiiiijkkkkkkifedcbbbbbcccddddeedeeeeeeeefggghilmmnnopnmkkkkijkkikljjklkjkkkkkklnqfklkgnlkminmikigigjehheeeeeeeeeeeeeeeeeeeffffggggggggggggggggggggggghhhhhhhgffggihhiiiiihijkkjklllnmlmmnopppppppqqonljkkkkkkkjjjjjjjjjjjjjjjjjjjjjjjjjjjj
(PID.TID 0000.0001) //    215 eeeeeedddddddddddddddddddddddeegfffeedeeeddddedeeffeeeeeefffffffffgggghhhijjkklnqvy+++++zxxusrpspjgffghjhghiillggggggggfgggggghhiiiiiiijjkkkkjiedbbbabbbcccddddeefffffefeeffghgimonnpponlkkkjijkjimjjkkkkkklllllmosfosnioklmhmkgkhhjhiffgedeeeeeeeeeeeeeeeefffffgggggggggggggggggggggghghhhhhghggggghhhiiiihijkjkkkkkkllnnoppppqppppqonkkkkkkjjkkjjjjjjjjjjjjjjjjjjjjjjjjjjj
(PID.TID 0000.0001) //    214 eeeeeeddddddddddddddddddddddddefgghfeeeeedddeedeefeeeeeeeeeeeeefffggggghhiniiijlmqvyz+zxwusqoljiifffggijkmnmkjihihgggggggggggghiiiiiiiijjjkkjieeecbbabbbccddddeefgggfeeeeefgghhjmmnqrpomkkjkkjkkjkmiklllmolmmnmnnpsbrrnjnjllhmigihhggjfffeedeeeeeeedddeeeeeeffffffgggggggggggggggggggghhhhhgghhgggghhiiiiihiiiijklljkmmnnnoppppppppponlkkkkkkkkkkjjjjjjjjjjjjjjjjjjjjjjjjjjj
(PID.TID 0000.0001) //    213 efheeedddddddddddddddddddddccddefffeeeedddddeeedeeeeeeeeeeeeeeeffffffgghhhjikjiimqtwxxuronppkiedeeegghjklnonljiiiihgghhggggghhhiiiiiiiijjjkkjheddcbbabbccddedeeffgggfeeeeefgghikmnopppnlkikkijlmklljlmnnnnmnoooooptdpqmilikijkhhigihhiffeeedddeeeeddeeeeeeeeeffffffggggggggfggggggggghhhhhgghhgggghiiiiijjiiiiijklkjklmnnoppqppppppnmlkkkkkkkkkkkkkkjjjjjjjjjjjjjjjjjjjjjjjj
(PID.TID 0000.0001) //    212 eeeeeeeeddddddddddddddddddccccddeeeeeeeeedddeeddddedddddeeeeeeffffffgkhggggklphhmorstplkkkkifdcccdegikkknnnnmmmjikkiiilhggghhhhiiiiiiiiikjjkhedcccbbbbbccdedcfgfgffefegeefhghiilnnooonlkkklkiimnkmllmnpnnmnonoooopndopkklikijkgihgigggeeeeddeddddddddddddeeeeeeffffggggggggggggggggghhhhhgghhhhggghiiiikkjhhiijjkjkllmmnopprrrqqponlllkkkkkkkkkkkkkkkkjjjjjjjjjjjjjjjjjjjjjj
(PID.TID 0000.0001) //    211 eeeeeeeeddddddddddddddddddcccccddeeeeeeeeeeddedddddddddddeeeeeffffffhihgggnjifghkmlikijjihjkfdbbcdefjkklnnnnnnnmlmkjhilhgghhhhhiiiiiiiiijijkhddccbbbbbbbcdeeeegegeefgggefihghiknmnppnlkkjklkiloplnmnnppoprrssqppoolhpnklikkhjjgighiggfeeeeddddddddddddddddeeeeeeeeffgggggggggggggggghhhhhhhhhgggggiiihhhhiiiiijkkjlllmmmnstssrrsqomkkkkkkkkkkkkkkkkkkkkkkkkkkjjjjjjjjjmjjjjj
(PID.TID 0000.0001) //    210 eeeeeeedddddddddddddddddddccccccddddddddeeeddddddddddddddeeeefffggffggggfglhfffghhhgghhhffijfdcccdefikkkmnnnnmllllkjhgggghhhhhhhiiiiiiiiiikkgdddbbbcbbbcdeedefgeffegggfhhjihijllmnpnmkkkjklkhlpnmnppqqoopqqrrrtqnnlinjmjkkhhlhhhghgggedddddddddddddddddddddddeeeeeefgggggggggggggggghhhhhhhhhgghhhihhhhhhiiiijjkkkkllmmoqvutttrtqolkkkkkkkkkkkkkkkkkkkkkkkkkkkkjjjkkjkkjjjjj
(PID.TID 0000.0001) //    209 eeeeeeddddddddddddddddddccccccccccddddddeedddddddddddddddeeeffffigfgggggffffffffggghifeeeeeeeeddddefhjjklnnnnlnmmllkiggghhihhhhhhiiiiiijkmmkfefdaabdbbbcdedeggefgegggggikiiijkmnnqpmlkkjjkmijnonoppqqpmoqtrrrpponojjllkkkhgilgggggggfdddddddddddcccccdddddddddddeeeefgggfggggggggggghhhhhhhhhgghhhhhhhghhiiiijjkkkllmmnqxttstttrpmkkkkkkkkkkkkkkkkkkkkkkkkkkkkkkjkkjkkkjjjjj
(PID.TID 0000.0001) //    208 eeeeeeddddddddddddddddccccccccccccccdddddddddcccdedddddddeffglmfgffffffffffffeffghfffgeeedeeeeeddeefghikmnnnnnnnnmkkhgghiiiiihhihhiiihimlmljfegeabdcbbcdeeeeeeegfgggghjkjiiiklnoprmlkkkikmkinppprqoooorsrrqronmnnnikikiihihjiggggggifddddddddddcccccccccccdddddddeeefggegggggggggggghhhhhhhhhhhhhhhhhhgiiiiijjjkkkllmnoqtttrssstrllkkkkkkkkkkkkkkkkkkkkkkkkkkkkkkkjjkkkkkkjj
(PID.TID 0000.0001) //    207 eeeeeeddddddddddddcccccccccccccccccccddddddccccccdddddeedejgjkfffffffffffffffffgfeeeeeeeedddddeddeefghikmnnnnnoonmjigghiiiiiiiiiihihhijklkigeegdacdbbcdegdeeeeeeegghhhkjiiiiklnoqqmkklllnmljosqrqmlsrrsrqnmonlmnlkikjkjjhiijhhggggggeddddddddddccccccccccccddddddeeefggfgggggggggggghhhhhhhhhhhggghghhhigiiijjjjkklmnoprvvtrrttomllllkkkkkkkkkkkkkkkkkkkkkkkkkkkkijjkkkkkkkk
(PID.TID 0000.0001) //    206 eeeeeeddddddddddccccccccccccccccccccccccccccccccdddddekqigjgfgffeffffffffffeeffgededdeefeedddddddefgiiklmnnnnnmnljihhihiiihhhiiiiiihhhgjjigfeeebbbbbbceefdeeddeggghiihiijiijkmnprnlkkllmnnkkprprsmoprromnoollmnlkjjjljkhigggiggggggfeddddddddddcccccccccccccdddddeeefgffggggggggggghhhhhhhhhhhhghhhhhiihhiiijjjjkklmnoptxutpttqmmllllkkkkkkkkkkkkkkkkkkkkkkkkkkjijkkkkkkkkkk
[...]
(PID.TID 0000.0001)  cg2d: iter=  1241 ; resid.=  1.18424681042347E-06
(PID.TID 0000.0001)  cg2d: iter=  1242 ; resid.=  1.37014208807794E-06
(PID.TID 0000.0001)  cg2d: iter=  1243 ; resid.=  1.22280043154146E-06
(PID.TID 0000.0001)  cg2d: iter=  1244 ; resid.=  1.36108591546277E-06
(PID.TID 0000.0001)  cg2d: iter=  1245 ; resid.=  1.34842868194036E-06
(PID.TID 0000.0001)  cg2d: iter=  1246 ; resid.=  1.35690723574131E-06
(PID.TID 0000.0001)  cg2d: iter=  1247 ; resid.=  1.47038262380886E-06
(PID.TID 0000.0001)  cg2d: iter=  1248 ; resid.=  1.15998499202258E-06
(PID.TID 0000.0001)  cg2d: iter=  1249 ; resid.=  1.30838936297022E-06
(PID.TID 0000.0001)  cg2d: iter=  1250 ; resid.=  1.23032281783024E-06
(PID.TID 0000.0001)  cg2d: iter=  1251 ; resid.=  1.22441287337254E-06
(PID.TID 0000.0001)  cg2d: iter=  1252 ; resid.=  1.15945643927623E-06
(PID.TID 0000.0001)  cg2d: iter=  1253 ; resid.=  1.05516640271953E-06
(PID.TID 0000.0001)  cg2d: iter=  1254 ; resid.=  1.18013518991553E-06
(PID.TID 0000.0001)  cg2d: iter=  1255 ; resid.=  1.05951795257266E-06
(PID.TID 0000.0001)  cg2d: iter=  1256 ; resid.=  1.13219902095591E-06
(PID.TID 0000.0001)  cg2d: iter=  1257 ; resid.=  9.60020248995835E-07
(PID.TID 0000.0001)  cg2d: iter=  1258 ; resid.=  1.08385248020435E-06
(PID.TID 0000.0001)  cg2d: iter=  1259 ; resid.=  1.10059241590468E-06
(PID.TID 0000.0001)  cg2d: iter=  1260 ; resid.=  1.10036255375943E-06
(PID.TID 0000.0001)  cg2d: iter=  1261 ; resid.=  1.24814518879081E-06
(PID.TID 0000.0001)  cg2d: iter=  1262 ; resid.=  1.14131226984615E-06
(PID.TID 0000.0001)  cg2d: iter=  1263 ; resid.=  1.38101950023808E-06
(PID.TID 0000.0001)  cg2d: iter=  1264 ; resid.=  1.08883546211562E-06
(PID.TID 0000.0001)  cg2d: iter=  1265 ; resid.=  1.09750935094956E-06
(PID.TID 0000.0001)  cg2d: iter=  1266 ; resid.=  1.10947931532440E-06
(PID.TID 0000.0001)  cg2d: iter=  1267 ; resid.=  8.79795932940616E-07
(PID.TID 0000.0001)  cg2d: iter=  1268 ; resid.=  9.57432254981505E-07
(PID.TID 0000.0001)  cg2d: iter=  1269 ; resid.=  7.89224663057499E-07
(PID.TID 0000.0001)  cg2d: iter=  1270 ; resid.=  7.87987310621244E-07
(PID.TID 0000.0001)  cg2d: iter=  1271 ; resid.=  7.54558129562308E-07
(PID.TID 0000.0001)  cg2d: iter=  1272 ; resid.=  7.11065213290836E-07
(PID.TID 0000.0001)  cg2d: iter=  1273 ; resid.=  8.26328243707375E-07
(PID.TID 0000.0001)  cg2d: iter=  1274 ; resid.=  6.95869158458805E-07
(PID.TID 0000.0001)  cg2d: iter=  1275 ; resid.=  8.48406366413342E-07
(PID.TID 0000.0001)  cg2d: iter=  1276 ; resid.=  7.61987282962324E-07
(PID.TID 0000.0001)  cg2d: iter=  1277 ; resid.=  7.86531646642095E-07
(PID.TID 0000.0001)  cg2d: iter=  1278 ; resid.=  7.78291116692238E-07
(PID.TID 0000.0001)  cg2d: iter=  1279 ; resid.=  7.02932934263815E-07
(PID.TID 0000.0001)  cg2d: iter=  1280 ; resid.=  6.60159081996320E-07
(PID.TID 0000.0001)  cg2d: iter=  1281 ; resid.=  6.03248629614817E-07
(PID.TID 0000.0001)  cg2d: iter=  1282 ; resid.=  5.70280221663554E-07
(PID.TID 0000.0001)  cg2d: iter=  1283 ; resid.=  4.47784808880399E-07
(PID.TID 0000.0001)  cg2d: iter=  1284 ; resid.=  4.77786064787004E-07
(PID.TID 0000.0001)  cg2d: iter=  1285 ; resid.=  3.69370641198528E-07
(PID.TID 0000.0001)  cg2d: iter=  1286 ; resid.=  4.21827450554901E-07
(PID.TID 0000.0001)  cg2d: iter=  1287 ; resid.=  3.50557783380499E-07
(PID.TID 0000.0001)  cg2d: iter=  1288 ; resid.=  3.81000208793627E-07
(PID.TID 0000.0001)  cg2d: iter=  1289 ; resid.=  3.42777963604112E-07
(PID.TID 0000.0001)  cg2d: iter=  1290 ; resid.=  3.62813901311601E-07
(PID.TID 0000.0001)  cg2d: iter=  1291 ; resid.=  3.46891277222072E-07
(PID.TID 0000.0001)  cg2d: iter=  1292 ; resid.=  3.43236166205506E-07
(PID.TID 0000.0001)  cg2d: iter=  1293 ; resid.=  3.26282841316842E-07
(PID.TID 0000.0001)  cg2d: iter=  1294 ; resid.=  2.96466403697022E-07
(PID.TID 0000.0001)  cg2d: iter=  1295 ; resid.=  3.21119941280622E-07
(PID.TID 0000.0001)  cg2d: iter=  1296 ; resid.=  2.80401066088736E-07
(PID.TID 0000.0001)  cg2d: iter=  1297 ; resid.=  2.84595745333800E-07
(PID.TID 0000.0001)  cg2d: iter=  1298 ; resid.=  2.44690985601842E-07
(PID.TID 0000.0001)  cg2d: iter=  1299 ; resid.=  2.82494207309302E-07
(PID.TID 0000.0001)  cg2d: iter=  1300 ; resid.=  2.15808413708924E-07
(PID.TID 0000.0001)  cg2d: iter=  1301 ; resid.=  2.47609595685842E-07
(PID.TID 0000.0001)  cg2d: iter=  1302 ; resid.=  2.06917217783200E-07
(PID.TID 0000.0001)  cg2d: iter=  1303 ; resid.=  2.44587630234488E-07
(PID.TID 0000.0001)  cg2d: iter=  1304 ; resid.=  1.95637302352378E-07
(PID.TID 0000.0001)  cg2d: iter=  1305 ; resid.=  2.51878575056061E-07
(PID.TID 0000.0001)  cg2d: iter=  1306 ; resid.=  1.96167302004973E-07
(PID.TID 0000.0001)  cg2d: iter=  1307 ; resid.=  2.21808888225415E-07
(PID.TID 0000.0001)  cg2d: iter=  1308 ; resid.=  1.65139842929296E-07
(PID.TID 0000.0001)  cg2d: iter=  1309 ; resid.=  2.06070214100719E-07
(PID.TID 0000.0001)  cg2d: iter=  1310 ; resid.=  1.66661896555963E-07
(PID.TID 0000.0001)  cg2d: iter=  1311 ; resid.=  1.73614177242057E-07
(PID.TID 0000.0001)  cg2d: iter=  1312 ; resid.=  1.49816091398440E-07
(PID.TID 0000.0001)  cg2d: iter=  1313 ; resid.=  1.78568304696169E-07
(PID.TID 0000.0001)  cg2d: iter=  1314 ; resid.=  1.46956809004149E-07
(PID.TID 0000.0001)  cg2d: iter=  1315 ; resid.=  1.65716756735106E-07
(PID.TID 0000.0001)  cg2d: iter=  1316 ; resid.=  1.19335601471576E-07
(PID.TID 0000.0001)  cg2d: iter=  1317 ; resid.=  1.28612797062819E-07
(PID.TID 0000.0001)  cg2d: iter=  1318 ; resid.=  9.59147783790866E-08
(PID.TID 0000.0001)  cg2d: iter=  1319 ; resid.=  1.04846713170872E-07
(PID.TID 0000.0001)  cg2d: iter=  1320 ; resid.=  9.10607972288775E-08
(PID.TID 0000.0001)  cg2d: iter=  1321 ; resid.=  1.01787426161539E-07
(PID.TID 0000.0001)  cg2d: iter=  1322 ; resid.=  7.72715548414114E-08
(PID.TID 0000.0001)  cg2d: iter=  1323 ; resid.=  8.71330515816243E-08
(PID.TID 0000.0001)  cg2d: iter=  1324 ; resid.=  8.12111954920176E-08
(PID.TID 0000.0001)  cg2d: iter=  1325 ; resid.=  8.89099345973722E-08
(PID.TID 0000.0001)  cg2d: iter=  1326 ; resid.=  7.23378292578109E-08
(PID.TID 0000.0001)  cg2d: iter=  1327 ; resid.=  7.91430800782139E-08
(PID.TID 0000.0001)  cg2d: iter=  1328 ; resid.=  6.22139446133499E-08
(PID.TID 0000.0001)  cg2d: iter=  1329 ; resid.=  6.84701116268098E-08
(PID.TID 0000.0001)  cg2d: iter=  1330 ; resid.=  5.66694505800091E-08
(PID.TID 0000.0001)  cg2d: iter=  1331 ; resid.=  5.91593527310146E-08
(PID.TID 0000.0001)  cg2d: iter=  1332 ; resid.=  5.22267889674666E-08
(PID.TID 0000.0001)  cg2d: iter=  1333 ; resid.=  5.36562068505134E-08
(PID.TID 0000.0001)  cg2d: iter=  1334 ; resid.=  4.76482649669508E-08
(PID.TID 0000.0001)  cg2d: iter=  1335 ; resid.=  5.29676208046019E-08
(PID.TID 0000.0001)  cg2d: iter=  1336 ; resid.=  4.91049022816746E-08
(PID.TID 0000.0001)  cg2d: iter=  1337 ; resid.=  4.78024795176849E-08
(PID.TID 0000.0001)  cg2d: iter=  1338 ; resid.=  4.62602672771104E-08
(PID.TID 0000.0001)  cg2d: iter=  1339 ; resid.=  4.15489652159806E-08
(PID.TID 0000.0001)  cg2d: iter=  1340 ; resid.=  4.05246755950648E-08
(PID.TID 0000.0001)  cg2d: iter=  1341 ; resid.=  3.92589441310263E-08
(PID.TID 0000.0001)  cg2d: iter=  1342 ; resid.=  3.56056346339107E-08
(PID.TID 0000.0001)  cg2d: iter=  1343 ; resid.=  3.12931016353537E-08
(PID.TID 0000.0001)  cg2d: iter=  1344 ; resid.=  3.60913833205662E-08
(PID.TID 0000.0001)  cg2d: iter=  1345 ; resid.=  2.90336271396418E-08
(PID.TID 0000.0001)  cg2d: iter=  1346 ; resid.=  3.32749879014783E-08
(PID.TID 0000.0001)  cg2d: iter=  1347 ; resid.=  2.50882170602917E-08
(PID.TID 0000.0001)  cg2d: iter=  1348 ; resid.=  2.93857973082782E-08
(PID.TID 0000.0001)  cg2d: iter=  1349 ; resid.=  2.25379342987165E-08
(PID.TID 0000.0001)  cg2d: iter=  1350 ; resid.=  2.64416489975454E-08
(PID.TID 0000.0001)  cg2d: iter=  1351 ; resid.=  2.11316379381388E-08
(PID.TID 0000.0001)  cg2d: iter=  1352 ; resid.=  2.28849153246954E-08
(PID.TID 0000.0001)  cg2d: iter=  1353 ; resid.=  1.94352195265031E-08
(PID.TID 0000.0001)  cg2d: iter=  1354 ; resid.=  2.06265949082463E-08
(PID.TID 0000.0001)  cg2d: iter=  1355 ; resid.=  1.91920866854057E-08
(PID.TID 0000.0001)  cg2d: iter=  1356 ; resid.=  1.68130375701598E-08
(PID.TID 0000.0001)  cg2d: iter=  1357 ; resid.=  1.91520352409687E-08
(PID.TID 0000.0001)  cg2d: iter=  1358 ; resid.=  1.59377301732123E-08
(PID.TID 0000.0001)  cg2d: iter=  1359 ; resid.=  1.83466949374457E-08
(PID.TID 0000.0001)  cg2d: iter=  1360 ; resid.=  1.28306844657647E-08
(PID.TID 0000.0001)  cg2d: iter=  1361 ; resid.=  1.53589948970806E-08
(PID.TID 0000.0001)  cg2d: iter=  1362 ; resid.=  1.27176070484489E-08
(PID.TID 0000.0001)  cg2d: iter=  1363 ; resid.=  1.40606533771685E-08
(PID.TID 0000.0001)  cg2d: iter=  1364 ; resid.=  1.27929463654791E-08
(PID.TID 0000.0001)  cg2d: iter=  1365 ; resid.=  1.25398259690782E-08
(PID.TID 0000.0001)  cg2d: iter=  1366 ; resid.=  1.38996822068049E-08
(PID.TID 0000.0001)  cg2d: iter=  1367 ; resid.=  1.15295278471655E-08
(PID.TID 0000.0001)  cg2d: iter=  1368 ; resid.=  1.40533514562371E-08
(PID.TID 0000.0001)  cg2d: iter=  1369 ; resid.=  1.07503884251576E-08
(PID.TID 0000.0001)  cg2d: iter=  1370 ; resid.=  1.13588368712727E-08
(PID.TID 0000.0001)  cg2d: iter=  1371 ; resid.=  1.12981790224951E-08
(PID.TID 0000.0001)  cg2d: iter=  1372 ; resid.=  9.73170428451138E-09
(PID.TID 0000.0001) // =======================================================
(PID.TID 0000.0001) // Model current state
(PID.TID 0000.0001) // =======================================================
(PID.TID 0000.0001) 
(PID.TID 0000.0001) // =======================================================
(PID.TID 0000.0001) // Begin MONITOR dynamic field statistics
(PID.TID 0000.0001) // =======================================================
(PID.TID 0000.0001) %MON time_tsnumber                =                     0
(PID.TID 0000.0001) %MON time_secondsf                =   0.0000000000000E+00
(PID.TID 0000.0001) %MON dynstat_eta_max              =   0.0000000000000E+00
(PID.TID 0000.0001) %MON dynstat_eta_min              =   0.0000000000000E+00
(PID.TID 0000.0001) %MON dynstat_eta_mean             =   0.0000000000000E+00
(PID.TID 0000.0001) %MON dynstat_eta_sd               =   0.0000000000000E+00
(PID.TID 0000.0001) %MON dynstat_eta_del2             =   0.0000000000000E+00
(PID.TID 0000.0001) %MON dynstat_uvel_max             =   0.0000000000000E+00
(PID.TID 0000.0001) %MON dynstat_uvel_min             =   0.0000000000000E+00
(PID.TID 0000.0001) %MON dynstat_uvel_mean            =   0.0000000000000E+00
(PID.TID 0000.0001) %MON dynstat_uvel_sd              =   0.0000000000000E+00
(PID.TID 0000.0001) %MON dynstat_uvel_del2            =   0.0000000000000E+00
(PID.TID 0000.0001) %MON dynstat_vvel_max             =   0.0000000000000E+00
(PID.TID 0000.0001) %MON dynstat_vvel_min             =   0.0000000000000E+00
(PID.TID 0000.0001) %MON dynstat_vvel_mean            =   0.0000000000000E+00
(PID.TID 0000.0001) %MON dynstat_vvel_sd              =   0.0000000000000E+00
(PID.TID 0000.0001) %MON dynstat_vvel_del2            =   0.0000000000000E+00
(PID.TID 0000.0001) %MON dynstat_wvel_max             =  -0.0000000000000E+00
(PID.TID 0000.0001) %MON dynstat_wvel_min             =  -0.0000000000000E+00
(PID.TID 0000.0001) %MON dynstat_wvel_mean            =   0.0000000000000E+00
(PID.TID 0000.0001) %MON dynstat_wvel_sd              =   0.0000000000000E+00
(PID.TID 0000.0001) %MON dynstat_wvel_del2            =   0.0000000000000E+00
(PID.TID 0000.0001) %MON dynstat_theta_max            =   2.0000000000000E+01
(PID.TID 0000.0001) %MON dynstat_theta_min            =   2.0000000000000E+01
(PID.TID 0000.0001) %MON dynstat_theta_mean           =   2.0000000000000E+01
(PID.TID 0000.0001) %MON dynstat_theta_sd             =   8.1712414612411E-14
(PID.TID 0000.0001) %MON dynstat_theta_del2           =   0.0000000000000E+00
(PID.TID 0000.0001) %MON dynstat_salt_max             =   3.0000000000000E+01
(PID.TID 0000.0001) %MON dynstat_salt_min             =   3.0000000000000E+01
(PID.TID 0000.0001) %MON dynstat_salt_mean            =   3.0000000000000E+01
(PID.TID 0000.0001) %MON dynstat_salt_sd              =   2.0605739337043E-13
(PID.TID 0000.0001) %MON dynstat_salt_del2            =   0.0000000000000E+00
(PID.TID 0000.0001) %MON dynstat_sst_max              =   2.0000000000000E+01
(PID.TID 0000.0001) %MON dynstat_sst_min              =   2.0000000000000E+01
(PID.TID 0000.0001) %MON dynstat_sst_mean             =   1.9999999999998E+01
(PID.TID 0000.0001) %MON dynstat_sst_sd               =   2.4584778657296E-12
(PID.TID 0000.0001) %MON dynstat_sst_del2             =   0.0000000000000E+00
(PID.TID 0000.0001) %MON dynstat_sss_max              =   3.0000000000000E+01
(PID.TID 0000.0001) %MON dynstat_sss_min              =   3.0000000000000E+01
(PID.TID 0000.0001) %MON dynstat_sss_mean             =   2.9999999999996E+01
(PID.TID 0000.0001) %MON dynstat_sss_sd               =   4.4231285301062E-12
(PID.TID 0000.0001) %MON dynstat_sss_del2             =   0.0000000000000E+00
(PID.TID 0000.0001) %MON forcing_qnet_max             =   0.0000000000000E+00
(PID.TID 0000.0001) %MON forcing_qnet_min             =   0.0000000000000E+00
(PID.TID 0000.0001) %MON forcing_qnet_mean            =   0.0000000000000E+00
(PID.TID 0000.0001) %MON forcing_qnet_sd              =   0.0000000000000E+00
(PID.TID 0000.0001) %MON forcing_qnet_del2            =   0.0000000000000E+00
(PID.TID 0000.0001) %MON forcing_qsw_max              =   0.0000000000000E+00
(PID.TID 0000.0001) %MON forcing_qsw_min              =   0.0000000000000E+00
(PID.TID 0000.0001) %MON forcing_qsw_mean             =   0.0000000000000E+00
(PID.TID 0000.0001) %MON forcing_qsw_sd               =   0.0000000000000E+00
(PID.TID 0000.0001) %MON forcing_qsw_del2             =   0.0000000000000E+00
(PID.TID 0000.0001) %MON forcing_empmr_max            =   0.0000000000000E+00
(PID.TID 0000.0001) %MON forcing_empmr_min            =   0.0000000000000E+00
(PID.TID 0000.0001) %MON forcing_empmr_mean           =   0.0000000000000E+00
(PID.TID 0000.0001) %MON forcing_empmr_sd             =   0.0000000000000E+00
(PID.TID 0000.0001) %MON forcing_empmr_del2           =   0.0000000000000E+00
(PID.TID 0000.0001) %MON forcing_fu_max               =   0.0000000000000E+00
(PID.TID 0000.0001) %MON forcing_fu_min               =   0.0000000000000E+00
(PID.TID 0000.0001) %MON forcing_fu_mean              =   0.0000000000000E+00
(PID.TID 0000.0001) %MON forcing_fu_sd                =   0.0000000000000E+00
(PID.TID 0000.0001) %MON forcing_fu_del2              =   0.0000000000000E+00
(PID.TID 0000.0001) %MON forcing_fv_max               =   0.0000000000000E+00
(PID.TID 0000.0001) %MON forcing_fv_min               =   0.0000000000000E+00
(PID.TID 0000.0001) %MON forcing_fv_mean              =   0.0000000000000E+00
(PID.TID 0000.0001) %MON forcing_fv_sd                =   0.0000000000000E+00
(PID.TID 0000.0001) %MON forcing_fv_del2              =   0.0000000000000E+00
(PID.TID 0000.0001) %MON trAdv_CFL_u_max              =   0.0000000000000E+00
(PID.TID 0000.0001) %MON trAdv_CFL_v_max              =   0.0000000000000E+00
(PID.TID 0000.0001) %MON trAdv_CFL_w_max              =   0.0000000000000E+00
(PID.TID 0000.0001) %MON advcfl_uvel_max              =   0.0000000000000E+00
(PID.TID 0000.0001) %MON advcfl_vvel_max              =   0.0000000000000E+00
(PID.TID 0000.0001) %MON advcfl_wvel_max              =   0.0000000000000E+00
(PID.TID 0000.0001) %MON advcfl_W_hf_max              =   0.0000000000000E+00
(PID.TID 0000.0001) %MON pe_b_mean                    =   0.0000000000000E+00
(PID.TID 0000.0001) %MON ke_max                       =   0.0000000000000E+00
(PID.TID 0000.0001) %MON ke_mean                      =   0.0000000000000E+00
(PID.TID 0000.0001) %MON ke_vol                       =   1.3390214028633E+18
(PID.TID 0000.0001) %MON vort_r_min                   =   0.0000000000000E+00
(PID.TID 0000.0001) %MON vort_r_max                   =   0.0000000000000E+00
(PID.TID 0000.0001) %MON vort_a_mean                  =  -1.3013328496589E-05
(PID.TID 0000.0001) %MON vort_a_sd                    =   8.0374144259079E-05
(PID.TID 0000.0001) %MON vort_p_mean                  =  -4.0285224932342E-05
(PID.TID 0000.0001) %MON vort_p_sd                    =   2.8329417776011E-03
(PID.TID 0000.0001) %MON surfExpan_theta_mean         =   0.0000000000000E+00
(PID.TID 0000.0001) %MON surfExpan_salt_mean          =   0.0000000000000E+00
(PID.TID 0000.0001) // =======================================================
(PID.TID 0000.0001) // End MONITOR dynamic field statistics
(PID.TID 0000.0001) // =======================================================
(PID.TID 0000.0001)   Seconds in section "ALL                    [THE_MODEL_MAIN]":
(PID.TID 0000.0001)           User time:   4.0615372285246849
(PID.TID 0000.0001)         System time:   8.8978003710508347E-002
(PID.TID 0000.0001)     Wall clock time:   5.2211799621582031
(PID.TID 0000.0001)          No. starts:           1
(PID.TID 0000.0001)           No. stops:           1
(PID.TID 0000.0001)   Seconds in section "INITIALISE_FIXED       [THE_MODEL_MAIN]":
(PID.TID 0000.0001)           User time:  0.10649699717760086
(PID.TID 0000.0001)         System time:   2.3973997682332993E-002
(PID.TID 0000.0001)     Wall clock time:  0.23345303535461426
(PID.TID 0000.0001)          No. starts:           1
(PID.TID 0000.0001)           No. stops:           1
(PID.TID 0000.0001)   Seconds in section "THE_MAIN_LOOP          [THE_MODEL_MAIN]":
(PID.TID 0000.0001)           User time:   3.9550308436155319
(PID.TID 0000.0001)         System time:   6.4989008009433746E-002
(PID.TID 0000.0001)     Wall clock time:   4.9875938892364502
(PID.TID 0000.0001)          No. starts:           1
(PID.TID 0000.0001)           No. stops:           1
(PID.TID 0000.0001)   Seconds in section "INITIALISE_VARIA    [THE_MAIN_LOOP]":
(PID.TID 0000.0001)           User time:   3.9550178349018097
(PID.TID 0000.0001)         System time:   6.4980000257492065E-002
(PID.TID 0000.0001)     Wall clock time:   4.9875729084014893
(PID.TID 0000.0001)          No. starts:           1
(PID.TID 0000.0001)           No. stops:           1
(PID.TID 0000.0001)   Seconds in section "MAIN LOOP           [THE_MAIN_LOOP]":
(PID.TID 0000.0001)           User time:   3.8146972656250000E-006
(PID.TID 0000.0001)         System time:   9.9837779998779297E-007
(PID.TID 0000.0001)     Wall clock time:   4.0531158447265625E-006
(PID.TID 0000.0001)          No. starts:           1
(PID.TID 0000.0001)           No. stops:           1
(PID.TID 0000.0001) // ======================================================
(PID.TID 0000.0001) // Tile <-> Tile communication statistics
(PID.TID 0000.0001) // ======================================================
(PID.TID 0000.0001) // o Tile number: 000001
(PID.TID 0000.0001) //         No. X exchanges =              0
(PID.TID 0000.0001) //            Max. X spins =              0
(PID.TID 0000.0001) //            Min. X spins =     1000000000
(PID.TID 0000.0001) //          Total. X spins =              0
(PID.TID 0000.0001) //            Avg. X spins =       0.00E+00
(PID.TID 0000.0001) //         No. Y exchanges =              0
(PID.TID 0000.0001) //            Max. Y spins =              0
(PID.TID 0000.0001) //            Min. Y spins =     1000000000
(PID.TID 0000.0001) //          Total. Y spins =              0
(PID.TID 0000.0001) //            Avg. Y spins =       0.00E+00
(PID.TID 0000.0001) // o Thread number: 000001
(PID.TID 0000.0001) //            No. barriers =           8794
(PID.TID 0000.0001) //      Max. barrier spins =              1
(PID.TID 0000.0001) //      Min. barrier spins =              1
(PID.TID 0000.0001) //     Total barrier spins =           8794
(PID.TID 0000.0001) //      Avg. barrier spins =       1.00E+00
PROGRAM MAIN: Execution ended Normally
