(PID.TID 0002.0001) 
(PID.TID 0002.0001) // ======================================================
(PID.TID 0002.0001) //                      MITgcm UV
(PID.TID 0002.0001) //                      =========
(PID.TID 0002.0001) // ======================================================
(PID.TID 0002.0001) // execution environment starting up...
(PID.TID 0002.0001) 
(PID.TID 0002.0001) // MITgcmUV version:  checkpoint69i
(PID.TID 0002.0001) // Build user:        hodahashemi
(PID.TID 0002.0001) // Build host:        Hodas-MacBook-Pro.local
(PID.TID 0002.0001) // Build date:        Sat Feb 21 05:31:12 EET 2026
(PID.TID 0002.0001) 
(PID.TID 0002.0001) // =======================================================
(PID.TID 0002.0001) // Execution Environment parameter file "eedata"
(PID.TID 0002.0001) // =======================================================
(PID.TID 0002.0001) > &EEPARMS
(PID.TID 0002.0001) >  nTx=1,
(PID.TID 0002.0001) >  nTy=1,
(PID.TID 0002.0001) > /
(PID.TID 0002.0001) >
(PID.TID 0002.0001) 
(PID.TID 0002.0001) // =======================================================
(PID.TID 0002.0001) // Computational Grid Specification ( see files "SIZE.h" )
(PID.TID 0002.0001) //                                  ( and "eedata"       )
(PID.TID 0002.0001) // =======================================================
(PID.TID 0002.0001)      nPx =    4 ; /* No. processes in X */
(PID.TID 0002.0001)      nPy =    2 ; /* No. processes in Y */
(PID.TID 0002.0001)      nSx =    1 ; /* No. tiles in X per process */
(PID.TID 0002.0001)      nSy =    1 ; /* No. tiles in Y per process */
(PID.TID 0002.0001)      sNx =  360 ; /* Tile size in X */
(PID.TID 0002.0001)      sNy =  360 ; /* Tile size in Y */
(PID.TID 0002.0001)      OLx =    2 ; /* Tile overlap distance in X */
(PID.TID 0002.0001)      OLy =    2 ; /* Tile overlap distance in Y */
(PID.TID 0002.0001)      nTx =    1 ; /* No. threads in X per process */
(PID.TID 0002.0001)      nTy =    1 ; /* No. threads in Y per process */
(PID.TID 0002.0001)       Nr =    1 ; /* No. levels in the vertical   */
(PID.TID 0002.0001)       Nx = 1440 ; /* Total domain size in X ( = nPx*nSx*sNx ) */
(PID.TID 0002.0001)       Ny =  720 ; /* Total domain size in Y ( = nPy*nSy*sNy ) */
(PID.TID 0002.0001)   nTiles =    1 ; /* Total no. tiles per process ( = nSx*nSy ) */
(PID.TID 0002.0001)   nProcs =    8 ; /* Total no. processes ( = nPx*nPy ) */
(PID.TID 0002.0001) nThreads =    1 ; /* Total no. threads per process ( = nTx*nTy ) */
(PID.TID 0002.0001) usingMPI =    T ; /* Flag used to control whether MPI is in use */
(PID.TID 0002.0001)                   /*  note: To execute a program with MPI calls */
(PID.TID 0002.0001)                   /*  it must be launched appropriately e.g     */
(PID.TID 0002.0001)                   /*  "mpirun -np 64 ......"                    */
(PID.TID 0002.0001) useCoupler=   F ; /* Flag used to control communications with   */
(PID.TID 0002.0001)                   /*  other model components, through a coupler */
(PID.TID 0002.0001) useNest2W_parent =    F ;/* Control 2-W Nesting comm */
(PID.TID 0002.0001) useNest2W_child  =    F ;/* Control 2-W Nesting comm */
(PID.TID 0002.0001) debugMode =    F ; /* print debug msg. (sequence of S/R calls)  */
(PID.TID 0002.0001) printMapIncludesZeros=    F ; /* print zeros in Std.Output maps */
(PID.TID 0002.0001) maxLengthPrt1D=   65 /* maxLength of 1D array printed to StdOut */
(PID.TID 0002.0001) 
(PID.TID 0002.0001) ======= Starting MPI parallel Run =========
(PID.TID 0002.0001)  My Processor Name (len: 23 ) = Hodas-MacBook-Pro.local
(PID.TID 0002.0001)  Located at (  1,  0) on processor grid (0:  3,0:  1)
(PID.TID 0002.0001)  Origin at  (   361,     1) on global grid (1:  1440,1:   720)
(PID.TID 0002.0001)  North neighbor = processor 0003
(PID.TID 0002.0001)  South neighbor = processor 0003
(PID.TID 0002.0001)   East neighbor = processor 0004
(PID.TID 0002.0001)   West neighbor = processor 0000
(PID.TID 0002.0001) // ======================================================
(PID.TID 0002.0001) // Mapping of tiles to threads
(PID.TID 0002.0001) // ======================================================
(PID.TID 0002.0001) // -o- Thread   1, tiles (   1:   1,   1:   1)
(PID.TID 0002.0001) 
(PID.TID 0002.0001) // ======================================================
(PID.TID 0002.0001) // Tile <-> Tile connectvity table
(PID.TID 0002.0001) // ======================================================
(PID.TID 0002.0001) // Tile number: 000002 (process no. = 000002)
(PID.TID 0002.0001) //        WEST: Tile = 000001, Process = 000000, Comm = messages
(PID.TID 0002.0001) //                bi = 000001, bj = 000001
(PID.TID 0002.0001) //        EAST: Tile = 000003, Process = 000004, Comm = messages
(PID.TID 0002.0001) //                bi = 000001, bj = 000001
(PID.TID 0002.0001) //       SOUTH: Tile = 000006, Process = 000003, Comm = messages
(PID.TID 0002.0001) //                bi = 000001, bj = 000001
(PID.TID 0002.0001) //       NORTH: Tile = 000006, Process = 000003, Comm = messages
(PID.TID 0002.0001) //                bi = 000001, bj = 000001
(PID.TID 0002.0001) 
(PID.TID 0002.0001)  INI_PARMS: opening model parameter file "data"
(PID.TID 0002.0001)  OPEN_COPY_DATA_FILE: opening file data
(PID.TID 0002.0001) // =======================================================
(PID.TID 0002.0001) // Parameter file "data"
(PID.TID 0002.0001) // =======================================================
(PID.TID 0002.0001) >&PARM01
(PID.TID 0002.0001) >#rotationPeriod is set ini_parms: 86164 \approx 7.292123516990375e-5 ; our fortan is c/86400
(PID.TID 0002.0001) ># 7.27220521664304e-5 , 6.283185307179586
(PID.TID 0002.0001) >omega = 7.292E-5,
(PID.TID 0002.0001) ># MAYBE WE NEED TO ADD 1E2 FOR STABILITY IDK
(PID.TID 0002.0001) >viscAh  = 0.,
(PID.TID 0002.0001) >viscA4  = 0.,
(PID.TID 0002.0001) >diffKhT = 0.,
(PID.TID 0002.0001) >no_slip_sides = .FALSE.,
(PID.TID 0002.0001) >no_slip_bottom = .FALSE.,
(PID.TID 0002.0001) >exactConserv=.TRUE.,
(PID.TID 0002.0001) >momStepping=.FALSE.,
(PID.TID 0002.0001) >tempStepping=.FALSE.,
(PID.TID 0002.0001) >saltStepping=.FALSE.,
(PID.TID 0002.0001) >hFacMin=0.00001,
(PID.TID 0002.0001) >hFacMinDr=0.5,
(PID.TID 0002.0001) >/
(PID.TID 0002.0001) >
(PID.TID 0002.0001) >&PARM02
(PID.TID 0002.0001) >cg2dMaxIters = 5000,
(PID.TID 0002.0001) >cg2dTargetResidual = 1.E-8,
(PID.TID 0002.0001) >cg2dPreCondFreq = 1,
(PID.TID 0002.0001) >printResidualFreq= 1 ,
(PID.TID 0002.0001) >/
(PID.TID 0002.0001) >
(PID.TID 0002.0001) >&PARM03
(PID.TID 0002.0001) >nIter0   = 0,
(PID.TID 0002.0001) >nTimeSteps = 0,
(PID.TID 0002.0001) >deltaT   = 3600.,
(PID.TID 0002.0001) >monitorFreq=10,
(PID.TID 0002.0001) >/
(PID.TID 0002.0001) >
(PID.TID 0002.0001) >&PARM04
(PID.TID 0002.0001) >usingSphericalPolarGrid = .TRUE.,
(PID.TID 0002.0001) >delX = 1440*0.25,
(PID.TID 0002.0001) >delY = 720*0.25,
(PID.TID 0002.0001) >xgOrigin = 0.,
(PID.TID 0002.0001) >ygOrigin = -90.,
(PID.TID 0002.0001) >rSphere = 6371000.,
(PID.TID 0002.0001) >#clipping elevation of water
(PID.TID 0002.0001) >delR =  11000.0,
(PID.TID 0002.0001) ># 11000.0 ,
(PID.TID 0002.0001) >
(PID.TID 0002.0001) >/
(PID.TID 0002.0001) >
(PID.TID 0002.0001) ># Input datasets
(PID.TID 0002.0001) >&PARM05
(PID.TID 0002.0001) >bathyFile='bathymetry.bin',
(PID.TID 0002.0001) ># bathyFile='',
(PID.TID 0002.0001) >#  zonalWindFile='wind.bin',# Forcing to drive the "steady" circulation
(PID.TID 0002.0001) >
(PID.TID 0002.0001) >/
(PID.TID 0002.0001) >
(PID.TID 0002.0001) 
(PID.TID 0002.0001)  INI_PARMS ; starts to read PARM01
(PID.TID 0002.0001)  INI_PARMS ; read PARM01 : OK
(PID.TID 0002.0001) S/R INI_PARMS: No request for barotropic solver
(PID.TID 0002.0001) S/R INI_PARMS: => Use implicitFreeSurface as default
(PID.TID 0002.0001)  INI_PARMS ; starts to read PARM02
(PID.TID 0002.0001)  INI_PARMS ; read PARM02 : OK
(PID.TID 0002.0001)  INI_PARMS ; starts to read PARM03
(PID.TID 0002.0001)  INI_PARMS ; read PARM03 : OK
(PID.TID 0002.0001)  INI_PARMS ; starts to read PARM04
(PID.TID 0002.0001)  INI_PARMS ; read PARM04 : OK
(PID.TID 0002.0001)  INI_PARMS ; starts to read PARM05
(PID.TID 0002.0001)  INI_PARMS ; read PARM05 : OK
(PID.TID 0002.0001)  INI_PARMS: finished reading file "data"
(PID.TID 0002.0001)  PACKAGES_BOOT: opening data.pkg
(PID.TID 0002.0001)  OPEN_COPY_DATA_FILE: opening file data.pkg
(PID.TID 0002.0001) // =======================================================
(PID.TID 0002.0001) // Parameter file "data.pkg"
(PID.TID 0002.0001) // =======================================================
(PID.TID 0002.0001) > &PACKAGES
(PID.TID 0002.0001) >  useMyPackage = .TRUE.,
(PID.TID 0002.0001) > /
(PID.TID 0002.0001) 
(PID.TID 0002.0001)  PACKAGES_BOOT: finished reading data.pkg
(PID.TID 0002.0001)  PACKAGES_BOOT: On/Off package Summary
 --------  pkgs with a standard "usePKG" On/Off switch in "data.pkg":  --------
 pkg/mypackage            compiled   and   used ( useMYPACKAGE             = T )
 -------- pkgs without standard "usePKG" On/Off switch in "data.pkg":  --------
 pkg/generic_advdiff      compiled but not used ( useGAD                   = F )
 pkg/mom_common           compiled but not used ( momStepping              = F )
 pkg/mom_vecinv           compiled but not used ( +vectorInvariantMomentum = F )
 pkg/mom_fluxform         compiled but not used ( & not vectorInvariantMom = F )
 pkg/monitor              compiled   and   used ( monitorFreq > 0.         = T )
 pkg/debug                compiled but not used ( debugMode                = F )
 pkg/rw                   compiled   and   used
 pkg/mdsio                compiled   and   used
(PID.TID 0002.0001)  PACKAGES_BOOT: End of package Summary
(PID.TID 0002.0001) 
(PID.TID 0002.0001) MYPACKAGE_READPARMS: opening data.mypackage
(PID.TID 0002.0001)  OPEN_COPY_DATA_FILE: opening file data.mypackage
(PID.TID 0002.0001) // =======================================================
(PID.TID 0002.0001) // Parameter file "data.mypackage"
(PID.TID 0002.0001) // =======================================================
(PID.TID 0002.0001) >&MYPACKAGE_PARM01
(PID.TID 0002.0001) >/
(PID.TID 0002.0001) 
(PID.TID 0002.0001) MYPACKAGE_READPARMS: finished reading data.mypackage
(PID.TID 0002.0001) SET_PARMS: done
(PID.TID 0002.0001) Enter INI_VERTICAL_GRID: setInterFDr=    T ; setCenterDr=    F
(PID.TID 0002.0001) %MON XC_max                       =   3.5987500000000E+02
(PID.TID 0002.0001) %MON XC_min                       =   1.2500000000000E-01
(PID.TID 0002.0001) %MON XC_mean                      =   1.8000000000000E+02
(PID.TID 0002.0001) %MON XC_sd                        =   1.0392302339552E+02
(PID.TID 0002.0001) %MON XG_max                       =   3.5975000000000E+02
(PID.TID 0002.0001) %MON XG_min                       =   0.0000000000000E+00
(PID.TID 0002.0001) %MON XG_mean                      =   1.7987500000000E+02
(PID.TID 0002.0001) %MON XG_sd                        =   1.0392302339552E+02
(PID.TID 0002.0001) %MON DXC_max                      =   2.7798665505088E+04
(PID.TID 0002.0001) %MON DXC_min                      =   6.0647376310612E+01
(PID.TID 0002.0001) %MON DXC_mean                     =   1.7697236260984E+04
(PID.TID 0002.0001) %MON DXC_sd                       =   8.5552656128781E+03
(PID.TID 0002.0001) %MON DXF_max                      =   2.7798665505088E+04
(PID.TID 0002.0001) %MON DXF_min                      =   6.0647376310612E+01
(PID.TID 0002.0001) %MON DXF_mean                     =   1.7697236260984E+04
(PID.TID 0002.0001) %MON DXF_sd                       =   8.5552656128781E+03
(PID.TID 0002.0001) %MON DXG_max                      =   2.7798731661140E+04
(PID.TID 0002.0001) %MON DXG_min                      =   0.0000000000000E+00
(PID.TID 0002.0001) %MON DXG_mean                     =   1.7697194144702E+04
(PID.TID 0002.0001) %MON DXG_sd                       =   8.5553527331570E+03
(PID.TID 0002.0001) %MON DXV_max                      =   2.7798731661140E+04
(PID.TID 0002.0001) %MON DXV_min                      =   0.0000000000000E+00
(PID.TID 0002.0001) %MON DXV_mean                     =   1.7697194144702E+04
(PID.TID 0002.0001) %MON DXV_sd                       =   8.5553527331570E+03
(PID.TID 0002.0001) %MON YC_max                       =   8.9875000000000E+01
(PID.TID 0002.0001) %MON YC_min                       =  -8.9875000000000E+01
(PID.TID 0002.0001) %MON YC_mean                      =   0.0000000000000E+00
(PID.TID 0002.0001) %MON YC_sd                        =   5.1961474109831E+01
(PID.TID 0002.0001) %MON YG_max                       =   8.9750000000000E+01
(PID.TID 0002.0001) %MON YG_min                       =  -9.0000000000000E+01
(PID.TID 0002.0001) %MON YG_mean                      =  -1.2500000000000E-01
(PID.TID 0002.0001) %MON YG_sd                        =   5.1961474109831E+01
(PID.TID 0002.0001) %MON DYC_max                      =   2.7798731661140E+04
(PID.TID 0002.0001) %MON DYC_min                      =   2.7798731661140E+04
(PID.TID 0002.0001) %MON DYC_mean                     =   2.7798731661186E+04
(PID.TID 0002.0001) %MON DYC_sd                       =   4.6802597353235E-08
(PID.TID 0002.0001) %MON DYF_max                      =   2.7798731661140E+04
(PID.TID 0002.0001) %MON DYF_min                      =   2.7798731661140E+04
(PID.TID 0002.0001) %MON DYF_mean                     =   2.7798731661186E+04
(PID.TID 0002.0001) %MON DYF_sd                       =   4.6802597353235E-08
(PID.TID 0002.0001) %MON DYG_max                      =   2.7798731661140E+04
(PID.TID 0002.0001) %MON DYG_min                      =   2.7798731661140E+04
(PID.TID 0002.0001) %MON DYG_mean                     =   2.7798731661186E+04
(PID.TID 0002.0001) %MON DYG_sd                       =   4.6802597353235E-08
(PID.TID 0002.0001) %MON DYU_max                      =   2.7798731661140E+04
(PID.TID 0002.0001) %MON DYU_min                      =   2.7798731661140E+04
(PID.TID 0002.0001) %MON DYU_mean                     =   2.7798731661186E+04
(PID.TID 0002.0001) %MON DYU_sd                       =   4.6802597353235E-08
(PID.TID 0002.0001) %MON RA_max                       =   7.7276702989699E+08
(PID.TID 0002.0001) %MON RA_min                       =   1.6859188026131E+06
(PID.TID 0002.0001) %MON RA_mean                      =   4.9196033170312E+08
(PID.TID 0002.0001) %MON RA_sd                        =   2.3782534440125E+08
(PID.TID 0002.0001) %MON RAW_max                      =   7.7276702989699E+08
(PID.TID 0002.0001) %MON RAW_min                      =   1.6859188026131E+06
(PID.TID 0002.0001) %MON RAW_mean                     =   4.9196033170312E+08
(PID.TID 0002.0001) %MON RAW_sd                       =   2.3782534440125E+08
(PID.TID 0002.0001) %MON RAS_max                      =   7.7276886894985E+08
(PID.TID 0002.0001) %MON RAS_min                      =   0.0000000000000E+00
(PID.TID 0002.0001) %MON RAS_mean                     =   4.9195916092479E+08
(PID.TID 0002.0001) %MON RAS_sd                       =   2.3782776623264E+08
(PID.TID 0002.0001) %MON RAZ_max                      =   7.7276886894985E+08
(PID.TID 0002.0001) %MON RAZ_min                      =   0.0000000000000E+00
(PID.TID 0002.0001) %MON RAZ_mean                     =   4.9195916092479E+08
(PID.TID 0002.0001) %MON RAZ_sd                       =   2.3782776623264E+08
(PID.TID 0002.0001) %MON AngleCS_max                  =   1.0000000000000E+00
(PID.TID 0002.0001) %MON AngleCS_min                  =   1.0000000000000E+00
(PID.TID 0002.0001) %MON AngleCS_mean                 =   1.0000000000000E+00
(PID.TID 0002.0001) %MON AngleCS_sd                   =   0.0000000000000E+00
(PID.TID 0002.0001) %MON AngleSN_max                  =   0.0000000000000E+00
(PID.TID 0002.0001) %MON AngleSN_min                  =   0.0000000000000E+00
(PID.TID 0002.0001) %MON AngleSN_mean                 =   0.0000000000000E+00
(PID.TID 0002.0001) %MON AngleSN_sd                   =   0.0000000000000E+00
(PID.TID 0002.0001)  MDS_READ_FIELD: opening global file: bathymetry.bin
(PID.TID 0002.0001) // =======================================================
(PID.TID 0002.0001) // Field Model R_low (ini_masks_etc)
(PID.TID 0002.0001) // CMIN =         -8.138753906250000E+03
(PID.TID 0002.0001) // CMAX =         -4.999999999999999E-01
(PID.TID 0002.0001) // CINT =          3.014168113425926E+02
(PID.TID 0002.0001) // SYMBOLS (CMIN->CMAX): -abcdefghijklmnopqrstuvwxyz+
(PID.TID 0002.0001) //                  0.0: .
(PID.TID 0002.0001) // RANGE I (Lo:Hi:Step):(   359:   722:     1)
(PID.TID 0002.0001) // RANGE J (Lo:Hi:Step):(   362:    -1:    -1)
(PID.TID 0002.0001) // RANGE K (Lo:Hi:Step):(   1:   1:   1)
(PID.TID 0002.0001) // =======================================================
(PID.TID 0002.0001) K =   1
(PID.TID 0002.0001) //                I=368     I=378     I=388     I=398     I=408     I=418     I=428     I=438     I=448     I=458     I=468     I=478     I=488     I=498     I=508     I=518     I=528     I=538     I=548     I=558     I=568     I=578     I=588     I=598     I=608     I=618     I=628     I=638     I=648     I=658     I=668     I=678     I=688     I=698     I=708     I=718
(PID.TID 0002.0001) // |--J--|901234567|901234567|901234567|901234567|901234567|901234567|901234567|901234567|901234567|901234567|901234567|901234567|901234567|901234567|901234567|901234567|901234567|901234567|901234567|901234567|901234567|901234567|901234567|901234567|901234567|901234567|901234567|901234567|901234567|901234567|901234567|901234567|901234567|901234567|901234567|901234567|9012
(PID.TID 0002.0001) //    362 omnmlllllllllllllllllllmmmlkjinsyzyz+++..............++.++++++++++++++++++++++..................................+ywvvuutt++zz+zzxxyvwwx..+zyvorsttssruyz++zz+yxxxzzyxzyvpmmnnnnnnnmlkljkklmmmmmmmmnnnoopppppqqqqppqqqqqppooooppponnmmmlllllllidplkjjjiiijjklllmnopqqqqqrsstttttttttssssrrrrqqqponmmmmmmmmmmmmmmllllllmmllllllmmmlllmmmllkkkkklputymlklmlkjjjjjjjjjjjjiiiijjj
(PID.TID 0002.0001) //    361 ommllllllllllllllllllllmmllkjjlrwzz++++++...........+....++++++++++++++++++++++................................++zwtsssty+zxwwwvuuttsrqrrqqqporstssrqu+zz+xvvwxyxz+zzxurnmmnnnnooooooqlkjjkkllmmmmmnnoopppqqqqqqqqqqqqqpoooooppppponmmllllmmlidolkjjjiiijkkkllmnoqrsrrrrssttttttttttsssrrrrqqpponmmmmmmmlllllllllllllmmmllllmmmmmlllllllkkkkkkmsvsmlkkkkkjjjjjjjjjjjjjjjjjjj
(PID.TID 0002.0001) //    360 qponlllllllllllllllllllllllkkjkrvzz++++++..............++++++++++++++++++++++++.................................+zvssstvy+yvvvuuxvwvsqoooonnnprtuussrvz+z+ywvuwzzz+++.ztonnnnnoopqstuxsolkjjjkllllmmnoppppqqqqqqqqppppppoooonooonmmmllkkkkkkkkgplkjjjjiijjkkllmnopqrssrssttttttttttttssrrrqqqpponmmmmmllllllllllllllmmmmmlllmmmmmmllllllllkkkkkmoonlkkkkkjjjjjjjjjjjjjjjjjji
(PID.TID 0002.0001) //    359 qqpomlllllllllllllllllllllllllkmsvw++zzz++..............+++++++++++++++++++++++................................+++ussstwx.yvvuuvx++zxutqoonoqqrruutsqu++z+zywuuvxzz++++yttyzzxurqqsuutxxrnnlkklllllmnnoppppqqqppppppppooooonmmmllmmmmnnmlkkkkihmlkjjjjjjijkkklmnopqrrrsssttttttttttttsssrrqqqpponmmmmllllllllllllllmmonmmlllmmmmmmmmmmmmlllkkjkkkmrqmkllkjjjjjjjjjjjjjjjjjii
(PID.TID 0002.0001) //    358 rqqpnlllllllllllllllllllllllmkjjoqx+zzxxyz+............++++++++++++++++++++++++.................................+zusrstwz.xvvvvvyywv++.ysqptsqqstutqosz+zx+zyvuvwyz++z+yyz....zxvvssuwyzyvsqonmmmmmmmnoppppqpppppppooooooonnmmoqrssrrssqqpppqokikkjjjjjkiikkkllmnopqqrsstttttuuutttttsssrrrqqqponmmmllllllllllmllllmnunmllllmmmmnmmmmmmmmmllkkkklmuzpllkkjjjjjjjjjjjjjjjjjii
(PID.TID 0002.0001) //    357 rqqonllllllllllllllllllllllnmkjikqwy+zwvwyz+............+++++++++++++++++++++++++.............................+++zurrstw.++zwxvxzy+..++zwttsqqrtuutqmovxyzzzyvwyzzy++++...........yuvyxzz.xvutrqponnnnoooppqpppppppponnoonoqqsuvvuutttsrrstttrrpjigghiijigjlkllmmnopqrssttttuuuuutttttsssrrrqqpnnmmmmlllllllllmmllllmnmlllllmmnotmmmmmlmmmlllkkkllpusmlklkkkkjjjjjjjjjjjjjii
(PID.TID 0002.0001) //    356 qqpnmllllllllllllllllllllllnlkjiimvy++xvvxz+...............+++++++++++++++++++++++..........................+.++zwtsstuz....zvw.....+zzyvutsrqrtsttrolpxxyz+yxyzzzyy+.+...........zww+xyx+.zywwvvtrqpoooopqppooooqpnnmnqqsvyuuvtuuuvvuttsuuuuuvxtomkhhgggggllllmmnnoqrstttttuuuuutttttsssrrrrqonnnmmmmmlllllmmomllllmmmlllmmmmnonmmmmmlmmmmllkkkkklmsrlkmqmnlkjjjjjjjjjjjiii
(PID.TID 0002.0001) //    355 ponlllllllllllllllllllllllmpmkjiijrv+.yvvvyz...............+++++++++++++++++++++++..........................++++zvtssuv.....zz+....+z.+.zxxvsrrrrrssqorz+zxxzzyyzzzz++.+..........+yzzzyxxzzzzzz+zywuqpoopppoooooonnnossvvzzwvvttttuuuuttuvvuuwwztsrqomjhggillmnnooprstttttuuuuuuutttttssrrrqpoopponmmmmmlllmlnllllllmmmmmmmmmmmmmmmmmmmmmmmllllkkklpysllsuwokjjjjjjjjjjjiii
(PID.TID 0002.0001) //    354 omllllllllllllllllllllllmnoqmlkjiilrx++yvvwz+..............++++++.++++++++++++++++..........................+++zxusstvx..........++zx++++z++zyxvvusrrtv+..zzxwwyzz++++++++........+yvwwz++zzz+++..++zwrpqppppopooqrqrtsstvyyxxyuuuuvvvuuvvvvvvvvzyxuwuspmkhgilrsrppqrsttttuuuuuuuuuttttssrrqqpopqqpnnnnmmmllllmllllllmmmnnmmmmmmmmmmmmmnnnnmmlllllkkmtspnmpnpljjjjjkkjjjiiii
(PID.TID 0002.0001) //    353 mnllllllllllllllllllllllollmlkkjjiiouyz+xvvxz+.............+++++..++++++++++++++++.........................++++yvtsstvw+.......+++ywvx+++z++.+++.++zwuuwywwuvxyzz..+++++++........+zxxvvy++++++.....+zyusrqpponnosqtrrstuwxxxxwwwvwyzzyxxxxxwvvvvwxvwvutqpljhlvztppqssttttuuuuuuuuutttttsrqqqppqqqpnnnnnnmmlllllllllmmnnnnnnnmmmmmmmmmmnnnnmmmlllllklmlqumkllkjjjjjjjjjjiiii
(PID.TID 0002.0001) //    352 lmlllllllllllllllllllnlllmkklkkjjkiiouvx+wvvy+...............++++.+++++++++++++++++........................+++++wusstvz.........+zxutzzz+zvwsooopyvtttsrpoootxxyzz+++++++++......++zyzwwvxy++++.......++wvtqpqnnnpopqrssuvvvxxxxxyz++.+zzyxvvvvvwwwwwvuttsrnlkpuqppqsstttuuuuuuuuuutttttsrqqqqqrrqpnnnnnnnmlllmmlllmmmnnnnnnnnnnmmmmmmmnnnnnmmmlllllklmlqolkkjjjlkkjjjjiiiii
(PID.TID 0002.0001) //    351 ononlllllllllllllllllmlllllllkjjkljijptvyzwvwz................++++.++++++++++++++++.........................+++++yttuv+..........zwtttutpmkkjjlkistnoooppmmpqsvuvxyzzz+++++++++++++zyywvvwy+............++zwuvsqpopoqrssuvuvwxwwxyz+zzzzywvusutuwx+zxwvuuvusrrplnopqrssttuuuuuuuuuuuttttssrqqqrrrqponnoonnmllmonllmmmnnnonnnnnnnnnnmmmmnnnnnmmmllllkkkklmspllkjjkmljjjjijkii
(PID.TID 0002.0001) //    350 oppomlllllllkkkkkllllllllllllkjkllklikorvzzwwy+.............+...++..+++++.+++++++++........................+++++++xtvz......++.++.wsrqqoljiijkomjnqmllmpopsvxwwvvuvwvwzz++++++.....++zvvvyz.................+zyvsrooqqtttttuvvvvwwyzzyxyuutsssstwwz++zxvvyvtuvspmoqrrrsttuuuuuuuuuuutttttsrqqrrsrqpooooonmlllmnmmmmmnnnooooooonnnnnnnmnmnnnnnmmmlllkkjkkloplntkjjjjjjjiiiiii
(PID.TID 0002.0001) //    349 pppomllllllkkkkkklllllllllllkjllmllliikotx+zxxy+.................++.+++++..++++++++++......................++++++++wu+.....+++++..+wspomkjiikkjlkppptuutswzz+++++zzzxwvxz+.........++zxwx+......................zxvsrsttttttuvvtuuxzxxyxwvvtssstutuuvyzywywtyvrqpoprrrsttuuuuuuuuuuutttttssqqrssrrpoooppnmmmmmmmmmmmnnnoooooooooonnnnnnnmmnnnmmmllllkjjjkllkmpljjjkjjiiiiiii
(PID.TID 0002.0001) //    348 oonnllllllkkkkkkkllllllllllljjklmmmljhhkovy+yxyz..................++++++.++++++++++++++++.....+...........+++++++++yu......+zz.....+zspoliikljjjmqyz.+yww++........+zxxwwyzz....++...+zx+.........................+zyvvvtvvtttutttuvvvvwxxwutttttsssuwxyzywvyuuurptussstuuuuuuuuuuuutttttssrrsssrrqpoooqnmmnonnnnnmnnnoooooooooooonnnnnnnmmmmmmmmlllkjjjjkkjkllkjjjjjiiiiiii
(PID.TID 0002.0001) //    347 onnnlllllkkkkkllkllllllllllkjjjklmmlkihhkquz+yyy++...............++++++++++++++++++++++++++++++++++........++++++++xuz.....+xz.....++zupliikkjjjko....+tyyz+zxy+yy..+zxxwvvx+...+....+++.............................++zyuxxuuttsstttuvvxyxuttttssssstuuw+ywvuvxsqptyutttuuuuuuuuuuutttuttssrssssrqqppppnnnopnoononnnooooooooooooonnnnnnnmmmmmmmmllkkjjkjjjjkkjjjjjjjiiiijji
(PID.TID 0002.0001) //    346 ooonmllllkkkkkllkkllllllllljjjjjllmlkjjhimquzzyyz++..............+++++++++++++++++++++++++++++++++++.....+.++++++yvuuvxz...yvz....++zzzqmijjlkjjjku...zrpx+zzwrpppwz.zzxwvuuz+.+++......................................+zzyzxttsssttuvvvwwutttttssssttstuxzwtwusrssvtttttuuuuuuuuuuuuuuuttssssssrrqqqqpppqqpoooooooooooooooooooooonnnnnnnnmmmmmmlkkjjjjjjjjkkjjjjiiiiiiiihh
(PID.TID 0002.0001) //    345 qqpnmllllkkkkkklkkkkkkkkllljjjjkmlklkkkjikosuzzxxz+..............+++++++++++++++++++++++++++++++++++..++++.+++++zvuttuvy...+vw+.....zzyulikmmkjjkjlrxvxrprvorrqnnnnrxzzywvvuw..+++++......................................+.zwutsssttuuvvvvvuuttttssssttuuvx+xssvusqrrsttuuuuuuuuuuuuuuuuttsssssssrqqqqqqqrqpooooooooooooooooopooooonnnnnnnnmmmmllkkjjjjlmkjjkjjjiiiiiiiihhh
(PID.TID 0002.0001) //    344 qpnmllllkkkkjjkllkkkkkkkllkjjjjmmljlkllkkikpry+yxxz+.............++++++++++++++++++++++++++++++++++++++++++++++zwvttuuvw+..zvuy++...++zriiklkjjlljnmjjnropqmortnnurkprvzxwvwvyy+zxxy+........................................zwutsstuuuvvvvvvuuuttttsttvzyzyy+wqxvtsqqsttuuuuuuuuuuuuuvvuttsssssssrrqqrrrssrqpoooooppppppppoppppoooooonnnnnnmmmmlkkjjjjmonkjjjjiiiiiiiiihhhh
(PID.TID 0002.0001) //    343 mlklkllkkkkkjjklmkkkkkkkklkjjjknnkkmklljkhglpuzzwwyzz+...........++++++++++++++++++++++++++++++++++++++++++++++yvuuuuvyz+..zvtuz....++ymgjjkkjjllmonmmqoommsttsmtwrjjnptzxwxxvwxyutuy++.......................................zywuuuuuuuvvvvvvvvuttttttv...yw.yooqyvtqsttuuuvuuuuuuuuvwxutttsssssssrrrrrstssqppppppppppppppppppppoooooonnnnnmmmlkkjjjjjjkjjkkjjijiiiiihhhhhh
(PID.TID 0002.0001) //    342 lkjjkkkkkkkjjklllkkkkjjjkljjjjkmmjkmkllkjhggmrvzxvvyzz+..........++++++++++++++++++++++++++++++++++++++++++++++yvvuvvyz++..+ztux..++++zqiiikkkklooqsvuqooorsnmlnuwujhilowyxxxvsstsqty++++++.....................................yzxvvvvvvvwvvwyzwutttttv+..zv.xmlouwursxuuuvvvvuuuuuuuwwuutttssssssrrrrstttsqqppppppqppppppppppppppoooonnnnmmmllkjjjjjjjjjjnpjiiiiiiihhhhhhh
(PID.TID 0002.0001) //    341 kjjjjkkkkjjjjkljkkkkjjjjkkjjjjklljklkkjjjiggioruxwvwvwxz+........++++++++++++++++++++++++++++++++++++++++++++++yvxvvwy++...+zvuwz+++.++spokjjknqqpooonnpoqonnjkkmnomgegkryywwutssrqtz+++++++++...................................yxvwvvvvvvvvvyvvvuuuwyy+..xsyullnqvvsryuuvvvvxuuuuuuuwwvuttttssstsrrqrrtuttrqqqqpqqqpqpppppppppppppooonnnnmmmlkkjjjjjjkjljjkiiiiiiiihhhhhhi
(PID.TID 0002.0001) //    340 mkjjjjjkkkkjjlljkkjjjjjjkljjjjlmkjjljjjjjihggnqrvxwwvvvwx+.......++++++zzzzz++++++++++++++++++++++++++++++++++zyyzzxxy++...+zvutw+++++xtsusljkqpppqoooprppmqllkkknoohcdhluzyyxxtrprx++++++++++++.................................yvvwyxvvvvvvvvvvxzwvw+..+yqrvumnpqtysqrstvvvvuuuuuuuvy+vuutttstttsqqppqrttttsrrqqqqqqqqqqqqqqqqppppooonnnmmllljjjjjjjjjjjjjjiiiiiiiiihiiiii
(PID.TID 0002.0001) //    339 omljkjjjjkkjjlkjkjjjjjjjmljjjklllijjjjjjjjihginqrw+zxvuuux+......+++++++zzzz++++++++++++++++++++++++++++++++++yz++zzyy++...+wussw+++++zwzuwyqkloooqnorssuvsqlljjkmrrjccehuyzzzzwqpu+++++++++++++++..............................+xwvvwzwyxyyyywxz+zzyz....yqoqrnputu+xtqqsuuuuttttuuuvy+zvuuttstttrqppoppqrtttssssrrqqqqqqqqqqqqpppoooonnmmllkjjjjjjjjjjjjkjjiiiiiiiiiikliii
(PID.TID 0002.0001) //    338 qomkljjjjjjjkkjjjjjjjjjjmkjjjkkkjiijiiijjjjihginqrwzyvuttvy+++++.++++++++zz++++++++++++++++++++++++++++++++++zzzzzyzyxz++++zuussvxvx+vrxyzxxwuolmnnnnosutomljkkjlnqriccdfvz++zytppy+++++++++++++++.................................zwvxwy.++..++.......+zwpkijmmouwwz.ztqqsttttsssttuuvyzwuuttssssrqoooooppqqrrssssrqqqqqqqqqqqqqppooonnmmlkjjjjjjjjjjjjkmtkjjiiiiiiiiimmiii
(PID.TID 0002.0001) //    337 qonmljjjjjjjkjjjjjjjjjjjkjjjjlkkiijjiiijjjjjihghmorvxwvtttvz+zy++++++++++++++++++++++++++++++++++++++++++++++yzzzzzzzyyyzzzzsvtstuuvwsooxzyyvusqqolmpppmmmjjjkkklpqphcbdguxz+zsros+++++++++++++++++..................................zyyxy+z+.........+xplfbcddfhnvwz.+yurqrsssrrrsstuuvvuuuutsssrqpooooooooooppqrrrqqqqqqqqqqqqppooonnmlljjjjjjjjjjjjjjjjnmkjkjjiiiiiiiiiii
(PID.TID 0002.0001) //    336 poomljjjjjjjjjjjjjjjjjjjjjjjjlkliijjiiikkkjjjihginqsuvwttttxzyx+++..++.+++++++++++++++++++++++++++++++++++++zyzzzzzzzzyyxxx+uuurssstxwrppswxwsrppomklllllkjjkllmnpqmfccfmwwzzuqpsy+..+++++++++++++++....................................zwwwzz++....+yskgcdgiihebdntz+.+zvrqqrrrqqqrrsuwuuuuttssrqppoooooooooooooooppqqqqqqqpqqqponnnmllljjjiijjjjjjjjjjjjlpplnrljiiiiiiiiii
(PID.TID 0002.0001) //    335 poomkjjjjjjjjjjjjjjjjjjjjjjjjkkkiikjiijklkjjjihggjmqstvvvutvywyz+.........+++++++++++++++++++++++++++++++++zzyyzzzzzzzyxwvvzttxsqrstvvuroopqpnrqpmllmllkkjkkklmpqsqieefisxvxxtrsx+++.+++++++++++++++.....................................xrrpsstwywxtqldcfijllkid-dkv++.+zwuqqqqqqqpqqsuttttttssrqqppooooooooooooooooopppppooopponnnonnmkjjiiijjjkjjjjjjjjlplkmpljiiiiiiiijj
(PID.TID 0002.0001) //    334 nonlkjjjjjjkkkjjjjjjjjjjjjjjkkkjiiljiiijlkjjjiihggioqstuxwutvxz++...........+++++++++.+++++++++++++++++++++zyyyyzzzzzzzywvvzrv+tqqttttsqooonnopoomlmsmlllkklnnotusjghgioyyxxvtvz+++++++++++++++++++++....................................yrlmlmmoomljhgghijklllkhc-bmz+..+zzysqpqqqpoopqrrsttttttsqqpoooooooooooooooooooooonnnnnmmmmmkkkkjjiiijjjjjjjjjjjjjklkjkljiiiiiiiikj
(PID.TID 0002.0001) //    333 mlmkkjjjjjjkkljjjjjjjjjkkjjjjkljiikjjijjkkjjjiiiihgjoqsstuuttwx++++..........+++++++......+++++++++++++++++zzyyyyzzz++zwvusvvy+wqqvvtsrooonnnnnnnmlmmmllmjkoppstpljkomoxzzyxvxz+++++++++++++++++++++++...............................+yvxxvronmjjggfgghiijkllllkjheberzz++++++wssssrqooooqrsttuttssrpoopooooooooooooooonnnnnnmmmllllkjjjjjjiiijjjjjjjjjjjjjjkkkjkjiiijjiiilj
(PID.TID 0002.0001) //    332 llkijjjjjjjjjlkkjjjjjjjljjjjjkmjiikjjijkkjiiiiiiiiggjmopqsrsstvxxvvz........................+...+++++++zz+zzzyyyyy+zzxtrrqpw+vxvvusrpopoonnnnnoonnnllnlkjkmuyrqnkjkqrqsz++ywxy+++++++++++++++++++++++.................................zvrtrpnjggfghiijjjklllmlllkjihciquyzyxy+zyxxwvtrponnprsttuuuttqoorpoooooooooooonnnnnmmmmllkkkkkjjjjjjjjjjjjjjjjjjjjjjjjlnjjjjkmlkigjjj
(PID.TID 0002.0001) //    331 lkiijjjjjjjjjjjjjjjjjjjjjjjjjkljijljjijkjjiiiiiiiihgggkmnpppqrtttsv++........................++++++++zzyxyyyyyzyzzyxwtqonnoqrwytwyyvrpoooonnnnnmmmllkkpnlmpswpmlmouruxz++zxxyz++++++++++++++++++++++++................................+ytpnmjggghjklllllllloqllllkjkjejrzvxxxx+++++zyvtspnnorstuvvvtrpopooooooooooooonnnnmmmmlllkjjjjjjjjjjjjjjjjkjjjjjjjjjjkmtlkjjmsrniiikj
(PID.TID 0002.0001) //    330 kjiijjjjjjjjjjjjjjjjjjjjjjjjjlljijljjijkjiiiiiiiiiihgfggilmnoqrstrtwvuxy+....+...............+++++++zyyxwwwxxyzzxywysqollllkloqnnptssrqpqoooonnnosuwzvuzyppqmlmovyxtx++.zxxxyz++++++++++++++++++++.......................++++..........+ztrrnjiijjlkkkkklllmnnmlllllolilpsxyzxxyyzyz+zwvvsqqrqsuvvvtrqpoopoooooooooonnnnnnmmmmllkkkjjjjjjjjjjjjjjjjjjjjjjjjjknplllmnromiijml
(PID.TID 0002.0001) //    329 kjiikjjkkkjjjiijjjjjjjjjjjjjjlkjijkjiiiiiiijiiiiiiiihgggefhknoprrsqqqrsvwz++++++++.................+yzxwwvvvvvxwvusqqpoollmllkjkmqsstpopvqoponnnoz+.xtruttsqmnpuzzyvyz+zxwxyzz++++++++++++++++++++.....................+.++++++.........+zxwtqoooppomnmkjjklllmlllmnoqsmkkov+z+zxwvvy++yxxuuyrqstvvvrrqooooooooooonnnnnnnnnnmmllkkkjjjjjkkkkjjjjjjjjjjjjjjjjjlllllnslkjjjjjj
(PID.TID 0002.0001) //    328 kjiijjjkjkkjjijjjjjjjjjjjjjjjkjjjkmjjiiiiijjjiiiiiiiihhggfeefjmppstrqpqqrtwzz++zzzz++..............+zz+yxwxxxwwzzzzxuvwssrtsromlmqwqtyusuwuwxvtluurrqrvsvyuuwvvwx+yyz++xvwyzzzz++++++++++++++++++...+++..+.........+....+++++++++++.......+zywvvwwvvstupkkjjlllllloqttqonmmpzz+++wvvwwz.ywxswvpprtvvtrqoooppppppommmmnnnooonmmmlkkjjjjljjklkjkjjjjjjjjjjjkljjlmlkkmulklkjjjj
(PID.TID 0002.0001) //    327 kjiijjkkjkkjjijijjkjkkjjjjjjjjjljkmjiiiiijjjjiiiiiiiiiihhggfeehloqsttrqqpppqstvuwxyzzzz+++++++++...++...zx+.+z++++++..zzzz+.zzwvxxwxy++++++++zxtutsvvzyyvvwxyxxxxxyzzzwvwyzzzzzzz+zz+++++++++++++++++++++++........+.+..+++++++++++.......++++++zz+++zztqonllllmmnqrtpnpoomousx+++yvwwvx+ywx+zqnprstwvqqrrrrutrnlkkkklmnooonnmmllkjjjjjjjjjjjjjjkkkjlkjjjjkjjlpljlllkmulkjjj
(PID.TID 0002.0001) //    326 kiiijjkkjkkjjiijjjkkjjiijjjjjjjjkjmjiiiijjjkjjiiiiiiiiiiihhggeehlopqsttrqpoooopqstuwyxyyyyyxyxyxyz++zz++zy+.+...++++..+++......+..+++zxxvtxsqrvz......zyvuttuuvxwvvwwvwxyzzzzzzzzzzz++++++++++++++++++++++++...........++++++++zzxy+.......+++++z++++++zxvtsrpmnoqsvsonoonootptzy++wvvvvy+wvzzsnnpqrrssttrrrpnmllnokjjklmmlmnllllkjjmjjjjjjjjjjjjjjjjjjjjkkjjkmkkmlkklxmkllj
(PID.TID 0002.0001) //    325 kiiijjjjjjkjiijjjkkjiiikkjjjjjjjjkljiiiijjjjjiiiiiiiiiiiiihhhgeefjmnprttsrqpoooppprvvtuvvvvvuuuuuuuwywzyzz+++....+zzyyxxyzzz+++zzyuusqqpppqqru......zyxvuttsssuttuvwxxyzzzzzzzzzzzz++++++++++++++++++++++++++..........++++++++yywwz+......+++++zz++++zyyzyywtpnssttqnnnnnoponpquxxwvwxvvzzuy+yuqnoprrusromlllllnnnnnmmnnnmjkllmllkklkjkjjjjjjjjjjjjkkjjjjkjjjjjkklkkklllllk
(PID.TID 0002.0001) //    324 kiiijjjjkjjjiijjjjjiiijmljjjjjjjjkmjiiiiiiiijiiiiiiiiiiiiiiiiihgfefilnpqrssrrqqppqqrqqpqrrqstssrsrpprrututuvuwxxvuttuvwxxxyywutssqqqppoppqruxxxxz+zywwutrqrstuuvwxxyyzzzzzzzzzzzz+++++++++++++++++++++++++++++........+++++++zzwvvvy++......++++zz++++zxxzzz+zvtvwwpooonnoppnnnnoqtuuy+zxz+yv++xtpmorqpmlmmnnllmnnnnoopoooookjkmmllllkkkjjjjjjjjjjjjjjjjjjjjjjjjjklkklklmmll
(PID.TID 0002.0001) //    323 jiiijjjjkjjiijjjjjiiijjlljjjjjkjiiliiiiiiiiiiiiiiiiiiiiiiiiijjihhgeeegkopqrssttttttvvtqpppopqqqqrrnnnnooqqqppqrrqqstvxwtttzywtsrqqqppopqrvsttuwzyxwvusssuuvxyyyyyyyzzzzzzzzzzzzz++++++++++++++++++++++++++++++++++++.++++++++zxvvuvwxz........++zz++++ztuzyyzxvxxuspoppoooonnnnnnnooqsvw+++zxxyztsmlqllonooposuuwvrqrqrqpppommklnmllllkkjjjjjjjjjjjjjjjjjjjjjjjjjkkllnllnwnm
(PID.TID 0002.0001) //    322 jiiijjjjjjiijjjjiiiiiijkkjjjjkljjhliiiiiiiiiiiiiiiiiiiihiiijjjjjjigfeeefjmpqqrssxxtuwsrrtsqqqrrqppnnmmmmnnnnnpppoqstvzmmmmqzywusrqqpppqsxtuuuxzxwvusssuxxyz+++zzzzzzzzz+++++++++++++++++++++++++++++++++++++++++++++++++++++zyvuuutuuuy+.......++zzz++ztsttvusssstroppqqoooonnnnnnnmnnpsy...zxwzxwnjkmnpqqpopsvwvwvsourqrpponmnkmnnmlllkkjjjjjjjjjjjjjjjjjjjjjkmlkklllkkllnn
(PID.TID 0002.0001) //    321 jiiijjjjjiijkjjihiiiiijkkjjjjjkjihliiiiijjjjjiiiiiiiiihhhiikllkllkihhfeeefiloppptvrsqqqqssrrruvtqpoonmmmmmmmnnnnnprsuwyyzmmmwyvtsrqqppquxvvuwyvutstuvwyzz+++++++zzzzzz+++++++++++++++++++++++++++++++++++++++++++++++++++++zzxuvvuttttuy........+zyxy+zwrqrrqqqqqqqrqooonnooonoooonmlllmqvyz+yuvwypglpoppqppqstwxxwvtvysqqtpnnnkkmnonmnllkkkjjjjjjjjjjjjjjjjjklllllklkkkllno
(PID.TID 0002.0001) //    320 jiiijkjjjijjkjjiiiiijjjlkjijjjjjiikiiiiijjljjiiiihhiiihhhiklllklmkiigfeeeeeffghkjjmklmoopppqsvwwtsrrpnnmmmmmmmmmmmnpqsuuwzplp+ywutsrrqtyzvvvytsstvwwyzz+++++++++++zz++++++++++++++++++++++++++++++++++++++++++++++++++++++zzyvuw+vtttssuy++.+.....zyxyzvssrrrsqqqqqqpoonnnnnopnmnonppopmlkkpvvuyyyrknpopooqprrruyxyxvrrsqrponnnnnjlnoonmmmmlkkjjjjjjjjjjjjjjjkkllllkllllmmoo
(PID.TID 0002.0001) //    319 jihgklkjiiijkjjiihhijjkkkjijjjjjiiliiiilnjkjjjjiiiiiiiiiiijlmlknvmihggffgfffeddeeddefhhifgnppqtvssrssrponnmmmmmmmmnnppoptxyyyxwxxywuvuw+yzyxttuvxxyyz+++++++++++++++++++++++++++++++++++++++++++++++++++++++++++++++++++++zzxvvwyvuuttsstuxxyyz+++.++zzywywvutqqqqqqqpnopoonqpptvutsstrpplkknst+++xrqqpppqqoqrotvxyxwtqqpqponooonmhjmnoooonmlkkkkkkkkkkkkkkkkkklllllllmpsopp
(PID.TID 0002.0001) //    318 jihgkljiiiijkjjihhijjjjjjiijkjjiikliiijmpnkkjjjiiiknjiiiiijkmmloukiggggggggiihlihfghhhgghijhhikoppqrrrqoqqppoooooonoonnpstuvvvwyzzxxyyy+ywutuvwxyzzz+++++++++++++++++++++++++++++++++++++++++++++++++++++++++++++++++++++zzywvwwwvvvuutsssttuuvwy+++++++zyxyxwsrqqqsrqprqrqqpovwwvussrssvqonjknu+.+wrqopqrrnoopuwzwuutrqqqqooooponnnlllmopomllllkklllkllllkkkkklllllllntusqq
(PID.TID 0002.0001) //    317 iihhkkjjjjiiiiiiiijjjjiiiijjkkjjikmjijkospmlkjjjklkpkjiikkklsmllkihgghhhiiijkmoojijjiiijkklkihhffhillmmnnppppponnmnoolmnptvvvvwxwwwyzyzwutuvxxyyzzz+++++++++++++++++++++++++++++++++++++++++++++++++++++++++++++++++++++++zxwvwwwvvvuutssssssttuvwxyz++yxyyyyxyusrqtuuvvyxurpsxwvusrqqrtttroljilrwyzuoononlhilotxzzwttrqqqropppoopqqpomjlooonnnnmllmmmnonmllllllllllmmnqssrr
(PID.TID 0002.0001) //    316 iighjkjkjjhhiiiiijjjiijiijjllljjiknjjkooopnmljjkjkklkkiijomlkmqjjiggghiiiiijkkkjjkkkjjjklmmmmlkihhiiiffghhhhiiihhgggffhhimstuuuuuuvwyyvuvvwxzzzzz++++++++++++++++++++++++++++++++++++++++++++++++++++++++++++++++++..+++++zxvvwwvvvvutsssssssssttutvvyzzyxyz++zxvttuvwwvtqqpstvvusqqppqtttqnmlhejloolhfddehiigimsuvvwtrqsqrpqqppqsqqtrqnkmoqqqppoonopqqrrpnlllllmoqqqpoopqqr
(PID.TID 0002.0001) //    315 ihgikmlljjhhhiijijjjikjijjkllmlljlnjikmllmlmljjjjkjkjijiimqumupjihgghijjiiiijkkjkklkkkklnnnnoonlkkklmjgfefgfeeffgggijiikkknprsststtuuvwxxyyzzzzz++++++++++++++++++++++.++++.+++++++++++++++++++++++++++++++++++++++..+++++zwttvvvuvutssrssssssssssssssttvvvyz+++yyxwuwsrpppqtuutsrqqponsuwtpoolkheddcdfjkklkkjhhlpuxzvsrrrqqqqqqruttssrqommoqssrrurqrstwxvqonmmnqtvwwtrpqsss
(PID.TID 0002.0001) //    314 ihijlnmkjihhhiiiiiiijkjjjjjkmpmlkkmiijkjjjjikjkkjljkkjklqlqmkomkihhimooijjjjjjkklmllllmnoonnoonllllnmkiiiihihihghijjjjklnmnopqrrrrstvxyzzzzzzzz+++++++++++++++++++++...++++++.++++++++++++++++++++++++++++++++++++..++++++yussuuttttsrqqrrrrrrrrrqqpoppppooqtx++z+xxtyuppoqrtutssrqqpnnptuzwrpnnmkhhlmlmmnlllljgfktxx+vqrstrqqqqsysrqqqrqqomnptssuqpqrvzyxsssppoquxxvusstvws
(PID.TID 0002.0001) //    313 iiijlnljjihhhhiiiiiijkjkljjksunlkjljijjjiiiijmnloomkjjlmjkjjjkkjihiikmnklkjjjknmmnnnnnopqpnllnmllmmnnjjjiiiihiihhijjjjjkmoonnooppqsvxyz+++++zz++++++++++++++++++++++++++++++.....+++++++++++++++++++++++++++++++++...+++++xsqrssssrqppooooooopppoonnnmmnnnnnopsuvwutrqpppqrsttssssrqponnsuuwvronnmlmnljmlmllllkhbgqxvwvqrstqqqqqsvusqqqqqqtsnnrtzzxqpppsstxursqqqqtvuttttutv
(PID.TID 0002.0001) //    312 iiijlllijihhgiiiiiiijjmlljjkpynljklkijjiiiiijmmmlqnmljijkjiijkjihiiijnkkjjmmlllmnnnoopqqqqmloqomkklljjjjjjjiiiiiiiijjjjknoppooooprtvxzzz+++++++++++++++++++++++++++++++++++..........++.+++.+++++++++++++++++++++.....+++ztqqqrrqqpoooooonnnnnnmmmmmmlllmmmmllmopponnnpqrsstttsssssqpponnvvusqponnnnmllllllllllkeclruuutssrqqqqqqrrsqqqsrrzurponqsopppqqqrrrqqqqqqqtttttttuy
(PID.TID 0002.0001) //    311 iiijkjjiihhhhhiiiijjjlnrmkklnollkkkkijjihgghjllklrolkjiijiiikkkjhiijllkkknmlllllmmnooppppolmrqojijllkjjjjjiiiiiiiiiiijjllnrsprpqrtvwxzzz++++++++++++++++++++++++++++++.....+..............+..++++++++++++++++++++.....+++zsqpqqqppooponnnnnnnmmmmmllllllllllkklmnnnnoprstttttttsssssrrrrmqyvrpooonnnmllllllllllkeakpuuuustrqqrqqqqqqqqqqquvtttqponpqqqrrqrrqqssqqpqqrsttsstx
(PID.TID 0002.0001) //    310 iijjkjjihhhhhgiiiiiikmmsollllkkkkjkkijjjggghjllklqmlkkkljiiiijkihiijnmollkkmlllllllnmmmmljkmonkhhijkjjjjjiiiiihhhhhhiikkmossrtssttvwxyyzzz++++++++++++++++++++++++++++......................++++++++++++++++++++++.....++ysqqqqqqqqpponnnnnmmmmmlllllllllllllllmopoopqstuuuutttssssssssqnouzsqoponmmlllllmmmmlllibipuvvurssqqqqqpqqqqqqqqrvvvsqppqrqqqrqqqqqrtvrqpppprutsrrs
(PID.TID 0002.0001) //    309 iiikkjijihiiihiiiiiijlmpommmlllkjikkgijjggggikklmmllkkmnlmiiiiimjiiiikmnjjkklooonkkkllljijjjjihhhijjiiiiiiiiihhhhhhhhijknpqstttttuvwxyyzzzz++++++++++++++++++++++++....++++....+.++++...+..++++++++++++++++++++++....+.++ysrqrrqqqqqponmmmmmmmmllllllllllllllllmnooopqsttuuutttssrrrqrrqopsxtpppnnkllllllmnooopokdiqwvutqrsqqqqqqpqqqqqqqqqrtqqqrsuqqqqqqsurqqsuqpppprtsrqno
(PID.TID 0002.0001) //    308 hiilljijhijjjhiiiihghjlmqoutmkkjjijmgiiihggghjklmlkkkkmnljiiiijonoliljionmnomopqmkljiiiiiiijjjhiiiiiiiiiiiihhhhhhhhhhijkotssttttuwxxyzzzzzz+++++++++++++++++++++++++++++++++......++.+.+..+++++++++++++++++++++++.....+++ztrrrrqqqqqrqonmmmlllllllllllllllllllllmnoopqrsttuutttsrqqpoqqqoqstsoppnoonnmmmmnorsssrqkfqzwuststqqqqqqqqqqqqrrqqqqqqqwrqqqqusrrqqqrrrqqqpoqtrpppr
(PID.TID 0002.0001) //    307 iijlkiijiijjiiiiiihggijkmppsqljljikmhiijgggggiklllkkkkmmkihiihkmjijiinojjnrppommkjjihhjkiiijkmjhiiiiiiiihhhhhhhhhhhhhijlpttsttttuwyyzzzzzz+++++++++++++++++++++++++......................++++++++++++++++++++++++.......+zurrrqqqqrrssrqnmmllllllllllllllllllllllmnooqqrstttttsrpponoqqqqrsqoonnppoonnmnopsuvvvtsognywvvvttrqqqqqqqqqqqqqqqqqqqsttsrprssqqrqqqqqrssqpopppqrs
(PID.TID 0002.0001) //    306 iijkkiiiiiijiiiiiihgghjkmmmnnlklkijkhiiigggggikkkkkkjkllihhhggjmjjiijijhimolkkkkkiihhiiliiijkmliiiiihhhhhhhhhhhhhhhhhijnpqsssstttwzzzzzzzz+++++++++++++++++++++++........................+++++++++++++++++++++++........+zzsrrrrqqrstutsqonmllllllllllllllllllllllmnoopqsttttsspnnnnpqqqqsrqonopqqqqpopqrtuvvwwwtpilsvvzzwtspoqqqqqqqqqqqqqqqqrsrqqqqqrrrssrrqqrsssssrrrrsst
(PID.TID 0002.0001) //    305 ijkkkiijiiiiiiiiiihghijjlklmjkloliikgiijhgggghjkjkjjjkliihgggggiiiiihggggiknrlmoniihhhiiiijjklmjljihhhhhhhhhhhhhhhihhikoqrsssstuuzyzzzzzz++++++++++++.+++++++++++..........................+++++++++++++++++++++........+++yvsrrrrrtzvvusqonlllkkklllllllllllllllllmmnopsttssrqommnpqqqqrtrqmopqqqrqqooqrrstuuuwwsjiptvz+xtroopqqqqqqqqqqqqqqqqqqqqqqqqqqrrrrqrrstttttttssst
(PID.TID 0002.0001) //    304 jjmjjijiiiiiiiiiiihghijkjjlkkopomiilgihijghgggjkjjjjjkliihgggggghikmhggghijlqppmjihhhhhiijjjkmllnjiihhhhhhhhhhhhhhhhhimpqrssssttx+zzzzzz+++++++++++++...+++++++++..........................++++++++++++++++++++++.......+++++yusrrrsuxvvutrppnlkkllllllllllllllllllllmnrsssrqppnmnoqqqqqqsrkpqrsppponnnoqpmlotttvumjpuvz+vtsqqqqqqqqqqqqqqqqqqqqqqqqqqqqqqqqqqrrstttttvtssss
(PID.TID 0002.0001) //    303 ijmijjigiiiiiiiiiihhiijjjkljklmnljikghiijhhgggijjjjjjkmiihggggggghkjgiihhiikpqoliihhhhhhijlklonmmjiihhhhhhhhhhhhhhhhhjlnppqstutvxzzzzz++++++++++++.......++++++............................+++++++++++++++++++++.........++++++ytrrsuvvvvuutrqommmllllllllllllllllllllmpsrrpnnnmnoqrrqqqrqlnqstpnnnmmllmnnlklotssronswvywvurqqqqqqqqqqrqqqqqqqqqqqqqqqqqqqqqqqrrrssstttttsss
(PID.TID 0002.0001) //    302 ijmjjkjgiiiiiiiiiiiiiiiijljikllkkjikghjiijggghgiiiiijklihgggggggghpihimihghjmqpkihhhhhhhikllmpoqokmlhhhhhhhhhhhhhhhiimoqqqtuvwwxzzzz++++++++++++++........+++++++.........................++++++++++++++++++++++.............+++zsstuvvvvvwvvtsrpoomlllllllllllllllllloqrqonmlmnoqrssrqqsqorstpnnnllllllnnmllnqrrrqrzxwsqusqqqqqqqqqqqqqqqqqqqqqqqqqqqqqqqqqqrrssssssttttsss
(PID.TID 0002.0001) //    301 iknkjjjgiiiiiiiiiiiiiiijkkiikkkjjigiigjjijhgghghiiiijkjigggggggggjlghiiihgghjlkiiihhhhhhikmlloooololihhhhhhhhhhiiihiimopstuvwxyzzzz++++++++++++...........+++++..+.....................+...++++++++++++++++++++++.............+++uttuvvvwwwwwwvutssrpnmlllllllllllllllnqrqonmlonqrrsrrqrssqsrpnlllllllmooonmnnnmoolr+zztqsxsqqqqqqqqqqqqqqqqqqqqqqqqqqqqqrqqqrrssssrsssttssr
(PID.TID 0002.0001) //    300 ikmljjigjijjiiiiiiiiiijkjiiijkjjjigihhijiihgggihiihijkigggggggggghggghhghgghiljiiiihhhhhilnmljklkjmiihhhhhhhhhiiiihhikortuuvwyzzz+++++++++++++++.........++...+.+.......................++..+++++++++++++++++++++.............++zuutuvwwwwwwwwwvvvvusqpnmmmmllllllllklmoqqppnpnprrrrqqqqrqqqpnlllllllmnnnnmnnnmlljjp+++vqtztrqqqqqqqqqqqqqqqqqqqqqqqqqqqqqqqqrrsrrssssssssrs
(PID.TID 0002.0001) //    299 ilnkijhhjijjiiiiiihiijjjiiiijjjjjjgihhiiijiggghiihhhiihgfggggghgggggggggghhhiiiiiiiihhiijkmmkjjjjkliihhhhhhhhiiiihhhkorssuvwxyzz+++++++++++++++..........+................................++++++++++++++++++++++..............++zuutuvwwwwwwwwwwwwwvuuusqponmlllllllllnoqqoopnoqrrqqqqqqqpqonmlllllllmmmnnnooppqppps+.+xvzzurqqqqqqqqqqqqqqqqqqqqqqqqqqqqqqqqrqqqrssssrrrsrq
(PID.TID 0002.0001) //    298 iknjiihhjjjjiiiiiihijjjiijiijjjjjigikgiiiihggggghghhhggggggggghggggggghhhhihhhijiiiihhiijlnomjjjiiiihhhhhhhhhiiihhghkpsstuvxyzz+++++++++++++...............................................+++++++++++++++++++++...............++wttuvxwwwwwwwxxywwwvwvvvusqnmlllllllmopqqopppqrrqqqqqqrnqonmllllllllllnnlnoooqqqqppx++yuuytqqqqqqqqqqqqqqqqqqqqqqqqqqqqruqqqqstsssssssrsttr
(PID.TID 0002.0001) //    297 ilmhiiiikkjjkjhiiiijjjijjiijjjjjjigijihiiigggggggggghggggggggggggghggghhhiiihhhiiiihhhijjlnnnmnmljiihhhhhhhhhiiihghinrttuvxyzz+++++++++++++++...............................................++++++++++++++++++++...............++xuttvvwwwwwwwxyzxwwwwwxwwvtpnnmmmmmlmnoppoqqrrrrqqqqqrqoqnmlllllllllllmkkmooqpppqvpuxzzuuytqqqqqqqqqqqqqqpoprqqqqqqqqqqusqrtussrrsssttstuww
(PID.TID 0002.0001) //    296 jmlgijjikkjjljhiiiijjjjjjiiijjjjjighilgijihggggggggggggggggggggggghgggghhiiiihijiihhhhiijkmnppqqpmjiiihhhhhiihhhhhikrtuvvwxyzz+++++++++++++++..................................................+++++++++++++++++...............++zvuuvvwwwwwwxyyzyyxxxxxxxwuropoonpomnonnooqrsssrqqqqqqponmmlllllllllnnklmmnoonmmmnorsxzxwyvsrqqqqqqqqqqqqqqqqqqqqqqqqqqtqrssqqrrrqssvwwyyyz
(PID.TID 0002.0001) //    295 jllgijjikkjjjiiiiiikkjjjihiijjiiiiggikgijhhggggggggggggggggggggggghgggghiiiiihikiihhhhijjkloqrrrqoomlkihhhiiiihhhikntuvwxyyzzz++++++++++++++++...................................................++++++++++++++................+++yvuvvwwyywwwxyzzyyyxxxxxwvtrqpppqqooppoopqrssrsqqqqqqpnmllllllllllnplklmlllmllllllmns++++wtsrqqqqqqqqqqqqqqqqqqrrqqqqqrsstrstssrwyzz++.++z
(PID.TID 0002.0001) //    294 jmnhjjjijjjjjijiiijlkjjjihhiiiiiiihggjghiihhgggggggggggggggggggggghgggghiiiiihiihhhiiiijkklmprssrppprsqonknnqljjjnrtuvxxyyzzzz+++++++++++........................................................++++++++++++++.................+++wvuvvxyxwwxyyyyzzyyxxxxxvttsrqqqqpprqrqqqrrrrqqqqqqpqnllllllllllmnmmmlllllllkkklllmowyz+yusrqqqqqqqqqqqqqqqqqrssqrqqrtrpnnpsuxzyz+...+++z
(PID.TID 0002.0001) //    293 jmliikiijjjjiijiiiklkjjihhhiiiiiiihggjggiihhgggggggggggggggggggggggghgghiiiihhihhhhiiiijlllmmrttsqqsuuttroqrsoppmptvwxyyyzzzzz++++++..++++............................................................++++++++..................+++zwvuvwwwwxyyyzyzzyyyyyyywuutsrrrqqqrtsqrqrrrqqqqqqqpnnmlllllllllmnllmllllllllllllllnqtwy+wtrrqqqqqqqqqqqrqqqrstrrssttrqqpstz+yzzz+++yyzxw
(PID.TID 0002.0001) //    292 jmkiijjjjiiiiiiiijlljjjiihhiiihiiiiggiigiiigggggggggggggggghhhhhgggghhhhhhhhhhihhihhiiijkkllnsttsrssttrrpqrsrrsrosuvxyyzzzzzz++++++....+.+............................................................++++++++...................+++ywvvwwwwxyyzzzzyyyyyyzzwvvutsssqqqsutssqqqrrqqqqqqrnnmmmmllllllmmlnomlllllllllllkjklnrwzxusrrqqqqqqqqqqqqqqrsrqrstusrrqssy+zzzzy+xyvuuvw
(PID.TID 0002.0001) //    291 jmiijjjijihhhiiijklkjjjhihhiiihiiiigghjgiiggggggggggggghhhhhhhhhhggghhhhihhhhhiihihhhiijjkklmqttttsssqqqqrsssssrqtvwyzz+zzzzz++++++....+..............................................................++++++++...................++++xwvwxxzyyyyzzzzzzzzz+ywwvuttsssqqsuvwtrrqqqqqqqqqomnmmmnmmllmmmmlnpsqnllnmlllllkkkjkqwzxwussqqqqqqqqqqqqqqqqqrrssustsrrsy+++++zzxvxssux
(PID.TID 0002.0001) //    290 jljijjiiiiiiiiijkjjjjjihihghhhhiiiiggghgihggghggggggggggghhhhhhhhhhhhhhjiihhhiihghhiijijjkkklpttttssssrrrstttssssuvxz+zzzzzz+++++++.....+................................................................++++....................++++ywwwwxzzxxyyzzzzzzzzwvvvvutsssrqqrsuvtssrqqqppqrrommnnnopppnnnoooopqtnllllllllllljhntz+ywtstrqqqqqqqqqqqqqqrssssstturrqrv++....zyyussst
(PID.TID 0002.0001) //    289 jljijjiiiiiiiijlkiijjjiiiighhhhiiihgghhhihgghigggfggggghhhhhhihhhhhhhhhhhhhhiihhhiikjjjjjkkllpsttttuutttvuuvvutuvwxyzzzzzzz++++++++...............................................................................................+++zywwwwyxxxyyyzzyxxxwvvuuutsssrrrrrstttsrrqqpopqrsonnnnppqqqpnnoqxtpponlllllllllllkfmtwzywusvtrqqqqqqqqqqqqqrssssssstprrqtz+....+yyzsstu
(PID.TID 0002.0001) //    288 kljjjjiiiiihijklkijjjiiiihhhhhhiiiiggghihghgihgggfgggghhhhhhhhhhhhhhhhhhihhhiiiiiijkkkkjjkllortuuuuuuuuuvvvvvvvwxyzzzzzzzz++++++++++..............................................................................................++++zyxwwwwwxxyxxxwwwvvvuuttssssssssttsstrqqqpooqqqpnnnnopqqqqqppos++tpppommmmmmllllkilpuwxwttuurrqqqqqqqqqqqqrrrrrrrssqprqrv+...+zwxwsttu
(PID.TID 0002.0001) //    287 jlkjjjiiiiihillljiiijiiihgiiiiiiiiiggghiggggigggggggghhhhhhhhhhhhhhhhhhhhhhhiiiiijkkllkkkllprsvvvvvvuuuvvwwwwxxyyzzzzz++++++++++++................................................................................................++++++zyxwwwwxxxxwwvvuuuuttsssssstttutussrqpppopsqttnnnopqqqqqqqpps++zrprtpnmmnmlllllkilsyxwwvuusrqqqqqqqqqqqqqqrrqpqrstqrqqtvwyzwuutsqurs
(PID.TID 0002.0001) //    286 jljjjjihiiiikllkjiijiiihhghhiiiiiihgggggggghhgggggghhhhhhhhhhhhhhhhhhhhhhhhhiiijjkklllkklmmqstvvvvvvuuuvvwxxxyyzzzzz+++++++++++++..................................................................................................+++++++zyxxxxxxxwvvvvvvvutssssrssttssttssqqppppqrwupooopqqqqqqqpprz++trtvqoonnmmllllkjkrxxyywttsrqqqqqqqqqqqqqqqrqqrqtsrsrqruwwxwvtsqpxtv
(PID.TID 0002.0001) //    285 jkijjjihiiijkkkjiiiiijiihhhhiiiiihgggggggggggggggggggghhhhhhhhhhhhhhhhhhhhhhijjjkllmmlmlmpqsstvvwwvvvuvvwxyyzzzzz++++++++++++++++..................................................................................................+++++++++zzyyyxxxxxwwwwxxvttssrrrrrqqrtstttrqqrqtzxrqpoqqqqqqqqqpquz+yssrqppononmllllkkpwxy+wtstrqqqqqqqqqqrqqqqqqqqqrrqsrsttsuwywrtqpqxt
(PID.TID 0002.0001) //    284 jjijjjiiiiijkkkjiijiijiiiiiiiihhhihggggggggggggggggggghhhhhhhhhhhhhhhhhhhhhhikjkjmlmmoqmprstuuvwwwvvvvvwxyzzzzz+++++++++++++++++...................................................................................................++++++++++++zzyyyxyyyyyzzxvutsrqqqqqpqqrrtttrqqsz++xtrqrrqqpppppprrz++wsrqqqqoonnmmllljovxyyxwrusqqqqqqqqqrsqqqqqqqqqqopqqqrrqv+xrrqqutts
(PID.TID 0002.0001) //    283 jiijjjjihiijkkkjjjjiiiiiiiiiihhhhhigggggggggggggggggggghhhhhhhhhhhhhhhhhhhiiijjllmnnnqqqsstuvvwxwwvvvvwwyzzz+++++++++++++++++++......................................................................................................++++++++++++zzzyyyzzzzyxwutsrqqqqpppqqrsssrqqv+++yurqsrqqqpoooopqw++ztrrqrsqonnnnllkilqwxyyxtvsrqqqqqqqqrrrqqqrqqqqqooqqrqqrwtqqqqrsqss
(PID.TID 0002.0001) //    282 jjijjjkkiiijjjjjjjjiiiiiiiiiihhhhhgggggggggggggggggggggghiiiiiihghhhhhhiiiiijkjkmonoprrsstuvwwxxwwwwwwwyz+++++++++++++++++++++..........................................................................................................+++++++++++zzzzzzzzyxwvtsrqqrqqppqstssrrrsy+++xusrtsrrqpooooooqy++wsrrrtwroonnnlkjilqvyzwtsusqqppppqqrsqqqqqqqqqqqqqqqqqssoqpoqqpqrs
(PID.TID 0002.0001) //    281 kjkjlkjkkiijjjjjjjjiiiiiijiiiihhhgggggggggggggggggggggghiiiiiiiiiihhiiiiiiijlkkjnnnoqstttuvwwxxxwwwwwwy+++++++++++++++++++++.............................................................................................................+++++++++++zzzzzzzyxxvusrrrrqpppqtsrsrrrtz+++yussvusuuqoooooops+++wsrrtzxroonnllkhikqwxwururrqqpppqqqqqqqqqqqqqqqqqqqrttpqrnpqppqqr
(PID.TID 0002.0001) //    280 kkmjllkkjjjjjjkjjjjjiiiiijjiiiihhgggggggggggggggghgggghiiiiiiiiiiiiiiiiiijjjjjljkllnptuuuvwwxxxxwwwwwx++++++++++++++++....................................................................................................................++++++++++++zzzzzzyxwvtsrqqqpppqrqrrrsswz+++yustwyxywtpoooooopu++zwtsvxwvtponmmmjfipwxywtsrqqqqpppppqqqqqqqqqqqqqqqqtsqprooppppqqr
(PID.TID 0002.0001) //    279 klojllllkjjjjjiijjjjjiiiiiiiiiihhggggggggggggggghhgggghiiiiijjjiiiiiiiiijjjjjjjjkkkmoqtvvvwxxxxxwwwwxz++++++++++++++.........................................................................................................................++++++++++zzzzzzyxvutsqqpppqqqrssstuyz+++yuttvwxzzxtpoooooopy+.+xvtuvyyxusoonlfhmuwxvsrqqqsqpoopqqqqqqqqqqqqqqqqrqqqoooooopqqqr
(PID.TID 0002.0001) //    278 jlnjkljmljjjjiijjjjjjiiijjiiiiihhggggggggggggggghhhhggiiijjjjjjiiiiiiiijjjjjjjjjjjjjkmruvwwwxxxwwwwxy+++++++++++++..........................................................................................................................+++++++++++++zzzzzywuxwrqppqrtrsssttuz++++zvttuvwz+zwvspoooooqz+.++xttw+yxyrpnlifmruvutssrrqppopqqqqqqqqqqqqqqqqqqstpppoooooqqqs
(PID.TID 0002.0001) //    277 jlmjklklljjjjjjljkjjjjijjjiiiiihhggggggggggggggghhhighijjjjjjjjjiiiijjjjjjjjjjjjjjjjjjmruvvvvwwwwwxyz+++++++.................................................................................................................................++++++++++++++zzzyxvuwyqppqtussttuttx+++++zuttvwzzyyyyupooooorz...+xttuvv+zuqnkfjostvvvssqqpppqqqqqqrsrqqqqqqrqrqroopppooopppqt
(PID.TID 0002.0001) //    276 jlmkklkkljjjjjjjkjjjjijjjjjiiiihhgghgggggggggggghhhhghjjkllmmmkjjjjjjkkkjjjjkkljhjjjjjjmouvuvvwwwxyzz+++++....................................................................................................................................+++++++++++++++zzywuuwrppqvvttttttuxyyz+++wutuxxxxxyzzsooonnory..++xttttxzxwrokinrttvusrqqppqqqqqrsrrrqqqqqrrtspnoooopooooopqt
(PID.TID 0002.0001) //    275 kllkkkkkljjjjjjjjjjjjijjjjjjjiihhgghgggggggggggghhhhhikllnopppnkjjjjkkkkkkkklokjikmljjjjkorstvvwwyzz+++++......................................................................................................................................++++++++++++++zzzxvuxrppquuvvuuuuvxxyy+++zuttwwwwwwxyvqpoonnosy+..+zvttttv+yupklpsrssttrqqqqqrqrqrqrqqqqrttsqonoonnnnnnnooort
(PID.TID 0002.0001) //    274 klllkkjkkjjjjjjjjjjjiijjjjjjjiihhgggggggggggggghhhihijlnnpqrrqokjjjjkkllllklomkjjkljjjjjjkmmpuvvwyz++++........................................................................................................................................++++++++++++++zzzzywvtpppqsvxvvvvvwwvwxz+zuttuvvvvvvxxvrpoonoprwz..++xtttuxzwvpkmpprttsrqqqqqqqqrrrrrsrrtsrqpononnmmnnnoooors
(PID.TID 0002.0001) //    273 klllkkkkkjjjjjjjjjjiiijjjjjjiiihhhggggggggggggghhhhijkmrrrsssroljiiijlnomlmmqlkjjjjjjjjjjjklosuvwz++...........................................................................................................................................+++++++++++++++zz+zxutppqqsvwvvvvvutttuvzytttuvvvvvvvvvuqooonopqrw+..+zuttuwxwtljkmorssrrqqqqqqrvssutussstooponnmmmmmmnooopqs
(PID.TID 0002.0001) //    272 klkkkkkkkjjjjjjjjjiiijjjkkjjiihhhhgggggggghggghgghijjikpsstttsqnjiiijoqppommnlkjjkljjjjjjjkmquvwx+++............................................................................................................................................++++++++++++++z++zxwsqvvttuvvuuuttssstuwutstuvvvvuuuvvvuqpoooopqqv+..+zwttuwxvsmhklosssttqrqrtuuwtrqrrrrqnnnnnmmmmmmmnoooprs
(PID.TID 0002.0001) //    271 jkjkkkkkjljjjjjjjiiiijjjjljjihhhhhhhhihgghhhhhgijiijjjiimpsstsqojiiiipqqqqqplllljkkjjjjjjklnquvwy.++............................................................................................................................................++.+++++++++++zzzzyxvqrrqtuuuttttsssstwxutttuvvvvuuuuuuusqpoooopqru++++zwttuwxxrnfhlopsvxuvutssrpnnopqpnlmnnmnmmmmmnnoqooqrt
(PID.TID 0002.0001) //    270 jkjkkkkkkljjjjjjiiiiijjjkkjjihhhhhhhhhhhghhhhhimiiiijjjiikpqqrqokjiiinqpoqqpmmllklkkjjjjjkmpuwwy+................................................................................................................................................+..++++++++++zzzzyxvqpqrstuutttssssssvyutttuvwwvuutttttsrqpoooopqrvz+++zvuuvxutpnjhkmorrppqnlkjnpmkjllllmmmmmnnmmnnnooopqrt
(PID.TID 0002.0001) //    269 jjkjkkkklkjjjjjiiiiiijjjjjiiiihhhhhhhhhhhhihhimmjiiiiiijjjkmonmkjjiiijooonnnnnnmmljjjjjjkmotvxxz+....................................................................................................................................................++++++++zzzzzzxvtprttttttttssssssuwtttttuvvvutttttttsrqpooopqsuw++zzwvwwvuwqpljhiklnnjpnmjhikkmmnmlmmmmmmmmmmnnnoopqrrs
(PID.TID 0002.0001) //    268 kjljkkkklkkjjjjiiiiiijjjjjiiiiihhhhhhhhhhiihhjkkkjiiijjlnmmkjjjjiiihijlnnnopqqpnmkjjjjjkmptvwxyz+....................................................................................................................................................++++++zzzzzzzzywtptwuuttttttssrrrswwttttuvvvutttssssssrqooooqrtvxyxxyyvvvvvrqomnjgfffefikkmlllnnmmmmmmmmmmmmmnnnoopqqrs
(PID.TID 0002.0001) //    267 jkljkkkkklljjjiiiiiijjjjjiiiiiihhhhhhhhhhihhijhljjjjiiiiklnljjiiiiihijlnnoqrsrpomkjjjjkmptwwxyz++....................................................................................................................................................++++++zzzyyyyyxvrquwvuttttttssrrrsvyutttuvvvvuttssssssrqooooqrsuwxxxyyuuvvvuqpnnomllkjkkllmnmmmmmmmmmmllllmmmnnnoopqrrt
(PID.TID 0002.0001) //    266 jkljjkkkkljjjjiiiiiiijjjiiiiiiihhhhhhhhhhhhhigjlkjjjjihhhjkkmkihiiiiikmooqrssrppokkkklmpsvwxyzz++....................................................................................................................................................++++++zzyyxwwwvupqstuuttttttssrrrssuttttuvvvvvutssssssrqoooopqrsuxxxxwuuuuvuqrpnnnllllmllllnnmmmmmllllllllmmmmnnoopqrss
(PID.TID 0002.0001) //    265 jjljjkkkkljjjiiiiiiiijjiiiiiiiihhhhhhhhhhhhggimlkkkjjiihhiiiilihhiihilnoqrrssrppplllmnpruwxyzz++......................................................................................................................................................++++++zzyxvvvvqnnpqsttttttsssrrrswutttuuvvvvvvutssrssrqpooooqrrtwxxxvutttuvsronoomllllmmmmmnnmmllllllllllmmmmnnooprrst
(PID.TID 0002.0001) //    264 lkkkkkkkkljjjjiiiiiiiiiiiiiiiiiihhhhhhhhhhgiimllllkjjjiiiiiijklihiihilnpqqrsrppollmnpqstvxxyz+++.........................................................................................................................................................++++zywvxtmmlmnpqstssssssrrrrszyutuuvvvvvvvvutsrrrrqpoooopqrsuwwvvuttttutonoonmlllllmmmmnnmllllllllllllmmmnnoorrstt
(PID.TID 0002.0001) //    263 lljkjkkkkljkjjiiiiiiiiiiiiiiiiiihhhhhhhhhhijimllllkjjjiiiihhijkkjjjiiopqqqrrrqpnmmnoqtuvwxyz++++.........................................................................................................................................................++++++yxpnlkkmnmnpqrrssssrrrrstuvuuuvvvvvvvvvutsrrrrqoooopqrrtwwvvutttuuuqnqsmmlllllmmmmmmlllllllllllllmmmnnooqsttt
(PID.TID 0002.0001) //    262 kljljkkkjljkjjiiiiiiiiiiiiiiiiiihhhhhhhhhiiikmllllkjjjiiiiiiiiiillkjiilnpqqrrqqpnmnoqtvwwxyz++++..........................................................................................................................................................++++++vomkklmmlloqqqrrrssrrrsuwvvuuvvvvvvvvvvusrrrqpoooooqqruxwvwutttuuuuoonmlllllllllllllllllllllllllmmmnnoorsttt
(PID.TID 0002.0001) //    261 jllkjkkkkljkjjjiiiiiiiiiiiiiiiiihhhhhhhhhiiinmllllkjjjjiiiijjjiilonkjiiilpqrrqqonnnoqtvwxxyz+++++..........................................................................................................................................................+++++yqlklonlllmprqqqrstrrqswzyvuuvvvvvvvvvvusrrrqqooooopqsuwwvuvuttttttqnmmlllllllllllllllllllllllllmmmnnopttttu
(PID.TID 0002.0001) //    260 jklkkjkkjljkjjjjjjiiiiiiiiiiiiiiiiiiiiiiijimpnmllkjjjjjiiijjjkkiiknlljihinqqppponnopqtvwxyz++++++..........................................................................................................................................................++++++vnmmppllllmopppqttsqqsv+zwuuvvvvvvvvvvusrrrqqpooooqrstwwvttuuttsstsonmlmmmlllllllllllllllllllllmmmnnopstsss
(PID.TID 0002.0001) //    259 jklkkjkkkljjjjjjjjjjjjiiijiiiiiiiiiiiiiijlpsrnmllkjjjjjjjjjjkmljiijljiihiilooooonnopqsvwxyz+++++++...........................................................................................................................................................++++xrmmrlllllllmnoqssrqqsvzxvuuvvvvvvvvvvutrrrqqqooooprsuvvvsstuttsrrsqnmmmmnmllllllllllllllllllllmmmnnpqsssrs
(PID.TID 0002.0001) //    258 jlllljkkkllkkkjkkkjjjjjjjjjiiiiiiiiiiijkortutomllkjjjjjjjjjjklkjjjjiiihhhhijjkmnnnopqrtvxyy++++++++..........................................................................................................................................................++++yslllmllllllllnprrqqqswxuuuvvvvvvvvvvvutsrrrqqpooopqtuvvutssttsrqqsrommmnnnmlllllllllllllllllllmmmmnoprtsrs
(PID.TID 0002.0001) //    257 llllljjkllllkkkllkkjjjjjjjjjiiiiiiiiijjostttspmllkjjjjjjjjjjjjjjjjjjjjiiiihhhijnmnnoprtvxyyz+++++++..........................................................................................................................................................++++yrlllmllllllllmpqqqpqrsttuvvvvvvvvvvvvvutsrrqqpooooquvvvuvtrstsqrqsspnnmpoonmlllllllllllllllllmmmmmnoqttrrt
(PID.TID 0002.0001) //    256 llllkjjklllllkkkklkjkkjjjjjjjjjjjiiijjnrsrpppomllkkjjjjjjjjjjjjjjjjjkjjiiiihhhillmmnpqsuwxyzz++++++..........................................................................................................................................................++++zumlomlllllllmopqqppqqrstuuvvvvvvvvvvvvvtsrqqqppooopsvxvtuttqrqqrprppooppppnmmlllllllllllllllllmmmnnoqtsrrs
(PID.TID 0002.0001) //    255 llllkjjklllllkkkkkkkkkkjkkjjjjjjjjjjkmpqnnmllllllkkjjjjjjjjjjkkkjjjjijjiiiiihhhijlmmoqruwxyzz++.+++...........................................................................................................................................................+++yqllllllllllllnpppoopqrstuuvvvvvvvvvvvvvtrrqqppoooopswxwtsssrrsqpooooooppponmmmllllllllllllllllmmmmmoqtrqrs
(PID.TID 0002.0001) //    254 llllkjjklllllkkkkkkkkkkkkkkkkjkkmjjknooomlkllllllkkjjjjjjjjkkklkjjiiijjiiiiiihhhjkllnpqtvxyyzz+++.............................................................................................................................................................++zunlklllllllllmnqppooprwuttuuvvvvvvvvvvvvtsrqppoooooprvxwurrrrqrqqoooooppqponnmmmlllllllllllllllmmmmmnpsqqrs
(PID.TID 0002.0001) //    253 llllkkjjklllllkkkkkkkkkkkkkkkkjllklmnmoollkllllllkkkkkkkjjjlkkklkjiiijjiiiiiiiiiiijjlnosvwxyzz+++.............................................................................................................................................................++zvolllolllklllmopqqpoprurstuuuvvvvvvvvvvvutrqpoooooooqsvwuqqrssppppoooooonoononmmmmmlllllllllllmmmmmmnoqpqrt
(PID.TID 0002.0001) //    252 lllllkjkkllllllklllkkkkllllllkkklllnllpnlllllllllkkkkkkkjjkkklklkjiiiiiiiiiiiiihhhhikmnquvxyyz++++............................................................................................................................................................+++xollpllllkllmqpqqqqooqsqrstuuuvvvvvvvvvvtrqpppooooooqvxwtppqrsqpsqoooopopponoonnnonmlllllllllmmmmmmmnnopqrv
(PID.TID 0002.0001) //    251 lllllljklllnlllllllllllllllllklllmmlloqmlllllllllkkkkkkkkkkklllkjiiiiiiiiiiiiiihhghiilmoruwyyz++++.............................................................................................+..............................................................+++yrnlmpmllklloqqqrqqpooppqssttuuvvvvvvvvvtrqppoooooooqvxwtppqqqpppoqppqqoqsrqqoooonmmlllllllllmmmmmnnooopprw
(PID.TID 0002.0001) //    250 lllllkjklllmmmlllllllllllmllllllllllmpplllllllllllkkkkkkkklllllkiijiijjiiiiiiihhhghiijjkoruxyyz++++...........................................................................................++...............................................................++zvqmlwqlllllmpqqrsrpooopqrstttuvvvvvvvvvurqppoooooooqrvvsqpqqqpooopqqqpoprsrpoppopmmllllllllmmmmnnopqpopprw
(PID.TID 0002.0001) //    249 lllllkjllllnnnllmmllmmmmnnmllllllllmoqpmlllllllllllllkllllllllkjjjjjjjjjiiiiiihhhggiihijlnrvxyz++++.........................................................................................++++...............................................................++zxsnlmqqmlllnopprssqpoooprsttuuvvvvvvvvvtrqpoooooooopsvvuqqqqqppppqrrqqpoprsrrqpoonmllmmlllmmmnooopqqpopqtw
(PID.TID 0002.0001) //    248 mmmmllllllmnnnmmnnnnnnonoonmmllllmnoqrpmmllllllllllllllllllkkkkjjjjjjjjjjjjiiihhhghiihiijlptwxy++++.........................................................................................++++.+.............................................................++zwsnklovnlllmooprssrpoopqrtttuuvvvvvvvvvtqppoooooooopsvwurqqqqqqqqrrrqqqpqrsstrqpoommnsrlllmnmnoooppppoprtw
(PID.TID 0002.0001) //    247 mmmmlllmmmmnnnnoooooopqqpponmmllmnoqssqommmmllllllllmnnmllkkkkjjkolkjjjjjjjiiihhhghiihhiijmsvxyz++++........................................................................................++++++.............................................................++zurmllmwoklllmmoqssqppppqrttuuvvvvvvvvvvurppoopqqpooqtwwvqqqqqqqrrssrqrspqrrturqpppnnonmmnmnnnnooooooopqsuw
(PID.TID 0002.0001) //    246 nmmmmllmmmmnnnoppppqqrrqqppnnnnmnprtusqpnnnmmlllllllpoolllkjlkjkonljjjjjjjjjiihhhghiihhiijlpsvwy+++++.......................................................................................+++++++............................................................++ztomkknumklllllmnqrqqqqpqrsttvvvvvvvvvvvtrpoopqqppopqtvxyvqqqqqrrsssqqrrpqrswurpoonnnmnnnnoonnnnnnooooprsuv
(PID.TID 0002.0001) //    245 nnnnnmmnnmmnnopqqqqqrrrrqpppponnprtvusrponnnmllllllmlllllmjlljkjlkiijjjjjjjjiihhhghhhhhiikjlnrtwy++++.......................................................................................+++++.+............................................................++yromkklmmllllllmpqqqqqqqqrttuvvvvvvvvvvutrpoppooppppqrux+zsqqrrssssqqqrqpqrsuurpoonmmmnnnnnnonnnnnnnnopstvv
(PID.TID 0002.0001) //    244 oooooopponnnooqssqqrrrrqqqqqqoooprtvusqponnmllllllllmlllllkljjjjjjiijjjjjjjjiiihhgghhhiiiijjmpqswz++++........................................................................................++++...+.........................................................++ysolkklnolllllloqrrqtqqqrstuvvvvvvvvvvvusrpooopppppppqsuzzvsqrsssrqqqrrqqrrsturqponmmmnnnnnnnnnnnnnnnopsuwv
(PID.TID 0002.0001) //    243 ppppqrsqonnooprsssrrrrrrqqqqpooooqsutrqponmmlllllllllllllkkjjjjkmjjjjjjjjjjiiiihhhhhhiiiiijjjmqruyz+++.......................................................................................+++..............................................................+++xumlkklllllllllortsrsxqqrtuvvvvvwwwwvvvurqpoppqqqqqppqrvzzwurrsssqqqrsrrrrstutrqqonmmmmnnnnnmnnnooooooprvxu
(PID.TID 0002.0001) //    242 qqqrrssrqpopqqssssrrsssrrqqqpppppqrssrqoonnmllllllllllllkjjjjjjmoijjjjjjjjiiiiihhhhhiiiiijjjjlnpswy+++........................................................................................................................................................+++wrlllkllllllllprstsrqtrrsuuvvvvwwwwwwvvusqqppqqqqqqqqrsuyyvuutsqssqrsttsssstuurrqonnnmmnnnnnnnnnorrpooqtwwt
(PID.TID 0002.0001) //    241 rrrsstsrrqqrrsssssssssssrrqqpqpopqrsrrqqponnmllllllllllkjjkjjklnnijjjjjjjiiiiiiiihhiiiiiijjjjklmptwz++...................................................................................................+....................................................++zvolllllllllllnqstssrswsstuvvvvwwwwwwwvvutrqpqqqqqqqqqrtvxwsqrssrqtqsttutrtstvvssqooopnnnnnnnnnnopqoooprvwvt
(PID.TID 0002.0001) //    240 ssstttsrrrrrssttttsstttssrqqqqpppqrssrrrqponmmllllllllllllmkjimnkijjjjjjjjiiiiiiiiiiiiiijjjjjkklmrux++........................................................................................................................................................+zwqmlllllllllllmqsttsrtustuvvwwwwwwwwwwvvvtrqqqqqqqqqqrsuwxsppqqrqqsqstvusqstuwvuqqpooonnnnnnnnnnnoooooqrvxut
(PID.TID 0002.0001) //    239 utttuussssssttuuutttuuttsrqqqqqpqqssssssrponnnmllllllllmljkjiinnijjjjjjjjjjiiiiiiiiiiiiijjjjjjkkmmqwz+........................................................................................................................................................+zslllllllllmlllorstsrqsstuvvwvvvwwwwwwwwvvusqqqqqqqqqqrsvwwqooopqqqopqrtutqttvxvtsqqponnnnnnnnnnnnnnnopqsuwts
(PID.TID 0002.0001) //    238 utttstttstuvuuuuuuvvvuuutsrrqqqqqqssssssrqponnnollllllmlkjjiijqlijjjjjjjjjjjjjiiiiiiiiiijjjjjjjkllnvz++......................................................................................................................................................++yollllllllmurlmorsrqpoqrsuvvwwvvvvwwwwwwvvutsqqqqqqqqrrsuwvronmnoqpopoqrsurtvwxvtqqroonnnnnnnnnnmnnnooprswvsr
(PID.TID 0002.0001) //    237 ssqooooonoruuvvvuvvwvvvuttssrrrrrssssssssrqpooopnmmmlnkkjjiiikplijjjjjjjjjjjjjjiiiiiiiiijjjjjjjkkkmrxz+.................................................................................................+....................................................++xmllllllllmsxnmopqponoprsuvvwwvvvvwwwwwwwvvutsqqqqqqrrrssvvrommmnppoonoqqqquvwwutrqpooonnnnnnnnnmmnoopqrtvsrr
(PID.TID 0002.0001) //    236 pqnmlllllllllnopuvvvxxwvuttsssrsssssssssssqppopqpnnnokjjjjiiijqnjjjjjjjjjjjjjjiiiiiiiiiijjjjjjjkkklouz++.....................................................................................................................................................++xnlllllllllmmmmnpqonnoprtvvvvvwwvvwwwwwwwvuttsrqqqqrsttssuvrpmmmmnonnnoopqrtvwvtsqpooonnnnnnnnnnmnnoopqsutrqq
(PID.TID 0002.0001) //    235 oonnmlllllllmlllmnptwxwwvuuttssssstttttsssrqqqrspnookjjjjjiihimmjjjjjjjjjjjjjjjiiiiiiiijjjjjjjjkkklnuz++....................................................................................................................................................+++vmllllllllllllmopqponnqvtvvvvvwwvwwwwwwwvutsttrqqqqrtuwvtuwtrommmnnnnnopoprtvvvtrqpooooonnnnnnnnmnnoopqstsqqq
(PID.TID 0002.0001) //    234 oonnnmmllllmnnnnnoonruvvwvvuutssttttttttsssrqrssqonkjjjjjiiiiijjjijjjjjjjjjjjjjjjjjjjjjjjjjjjjjkklmpuy+++......................................................++++++++++...................................................................................++zvnlllllllllllllorsqpnnszvvvvvvwwwwwwwwwvvusssssqpqqsuwxwvvxvspnmnnnnnnqqposvvvvusqpoooooqpnnnnnnnnoopprttrqqq
(PID.TID 0002.0001) //    233 oonnnnnnmllmmmmnnnnnnpppuvvvvuutuuuuutttttstsssssqljjjjjjiijiiinjjijjjjjjjjjjjjjjjjjjjjjjjjjjjkkklmptxz++..................................................++++++++++++++++................................................................................+++zunllllllllllllmnqsqnnnptwuvvvvwwwwwwwwwwvurqrsrqpqqswxxwwwxxtqonnooomnqqppsuvvuusqppoooopnnnnnnnnooopqsuqpqqq
(PID.TID 0002.0001) //    232 onnnnnnmllllllllmnmmlllmrrtvuvvvvvvutttttuuusssssrmjjjjjiiijjiiljjjijjjjjjjjjjjjjjjjjjjjjjjkkkkkllnrvwz++...............................................+++++++++++++++++++++++.+..........................................................................+++wqllllllkllllllmorspnpnnoqtuvvvvwwwwwwwwwvuqqqrrqpqruwyyxywwxvrpnoooonnoppqstvvusrqppqoooonnmmnnnooopprtsooqrq
(PID.TID 0002.0001) //    231 nnnnmmmmlllllllllllllllllmopppqsuuvspsssttuqrttsrqonljjjiiiiiihkjkjjkijjjjjjjjjjjjjjjjjjkkkklllllmotxy+++........................................+++++++++++++++++++++++++++++++++.........................................................................++ztnllllllklllmmlmpqrponmmnoqtuvvvwwwwxxxxwwurqqqqqqqruwyxxywvvutrooooonnpqqqstvutsrqppooooonnnnnnoopppqturpqqqr
(PID.TID 0002.0001) //    230 nnnnmmmmmmmmllllllllnllmlkklmmkjoplkjjkkmonllmmmllmnkjjjiiiiiigjjjjjkkijijjjjjjjjjklkkkkkkllllmmnprwyz+++.....................................+++++++++++++++++++++++++++++++++++++..............+........................................................+++xsmllllkkkkllpsllopqqpnmmmnqtuvvvwwwwxxxxxwusqqqqqpqrtvxywzyvuuuusqpoonnoqqqstvvuttsqpooooonnnnooopppqsvtrqppqs
(PID.TID 0002.0001) //    229 onnnmmmmmlllmllmmmmmmmlmmlmllkkikiiijmolmlijmpspnlllljjjiiiiihhijjjjjiiiiijjjjjjkmpqpnllllllmmnprsvxz++++...................................+++++++++++++++++++++++++++++++++++++++.....................................................................++++zuqlllllkkklllpollopqqqpommnrtuvvvvvvwxxxxxwvrqqppppqqrtxyxxwtuuuuuutrqrrpqqqrsuuvuutrqpoooooooooopqpqqtutqqpopt
(PID.TID 0002.0001) //    228 nnnnnmmmllmlllmmmlllmmmlmnnnonnknmlllllmmmjghkosommnnjjjiiiiiihiiiiiiijliiijjjjkmpsssrnmmmnnonopsuwyz++++.................................+++++++++zzzz+z+++++++++zzzzz++++++++++++++...................................................................+++zvpmllllllkkllpyslmmoqqqqqpnlqtuvvvvvvwxxxxxxwurqppppqqqswxxvxtuuuuuuvwututsrqstuttuuurqqooooooooppqqqqquvrqqqprv
(PID.TID 0002.0001) //    227 nnnnnmmmmmmlllmmmmllmmllmnoonmlmnlllllllmlkjigffgjklkjjjiiiikiiiiiiijjjjoiiijjlmosssssrppopqpoopsvwy+++++................................+++++++++zyyyyyyyyyxyyyyyyyzzzzz+++++++++++++.................................................................+++zuollllllllkkllmwolllmopqqqqonrttuvvvvvvxxxxxxwvtqqpppqqprvxxvyutuuuuuuwxvvvvutvvvuttuussrppqpoppqqrqqqqrtrqqqqquw
(PID.TID 0002.0001) //    226 nnnnmmmmlmmmmlmmmmmmmmlllllmmmmmmlllllllllmmmlieilmlkkjjiiiijiiiiiiiiiijjliijllnnrssssssrrrrqpoprvwy++++.................................++++++++zyxxxxxxwwuutvwxwwwxxyyyzz+++++++++++................................................................+++zwrlkllllllkkkklllllklllmnoppoorstttvvvvvxxxxxxxvusqqqqqqpqtxxwwwuuuutuuuvuvxwutvvvvuttttttrrsqqqqqqqqqqqtsqqqqqsvt
(PID.TID 0002.0001) //    225 nnnnmmmmlllmmmmmmmmmmmllllllmmnmllllllllllllmnmjkmnoonkjiiiiiiiiiiiiiiiijjmjikllnrssssssssrrrqppruwy++......................++++++..++++++++++zzyyxvuutuuurqqqsuvvvwwwxxxxyz+++++++++++......+........................................................+++xtollllllllkkkkllllkklllllllnmnqsttstvuuvwxxxxxwwwvtrqqqqppruyxvvuttuuttuuutvwyyxyywvuttuutttstrrrqqqqqqqtqqqqqqttr
(PID.TID 0002.0001) //    224 nnnmmmmmnmllmmmmmmmmmlllllllmmmllllllllllllllkkllllkmmljiiiiiiiiiiiiiiiiijjjjjjknrsssssssssrrrqqruwyz+..................++++++++++++++++++++zyxxurpppooooooooopqrtuvvwwwwwxyz++++++++++....+++++..+...................................................++ytqmlllllllkkkkkllllllllllllllllqsssssttuvwxxxxwwwwwvrqqqqqqqswwvvvuuvuutuuuuvwxyzz++zvuuuvvuvutttsrqqqqqssqqqqqttrq
(PID.TID 0002.0001) //    223 nmmmmmlmmmnmlmmmmmmmllllllllllllllllllllllllkkllkfhjjjjjiiiiiiiiiiiiiiiiijjjjjjknqssssssssssrrqqsvwyz+++...............++z++++++++++zzzzz+zusrpnnmmmmmmmmmmmmmnopqsuvvwwwwwxyzz+++++++++..++++++.++..................................................++yuplllllllllkkkkklllllllllllllllmpssssssttuvwwxwwwwwwvusqqqqqqrtvvvvvvvvuuttuuvvwxzz+++zwwvvvvvvvutssrqqrstqqqrsrvsqo
(PID.TID 0002.0001) //    222 mmmmmmmmlmmnmlmmmmmlllllllllllllllllllllllllllllmlgfhjjjjiiiiiiiiiiiiiiiiijjjjjjlprsssssssssrqqqsvwyz+++++..........++++zxxvvvvvvwyyyyyyywrnmmmlllllllllllllllmmnpqsuuvvvwwwxxyz++++++++.+++++++.++.................................................++zwrlllllllllllllllllllllllllllkkllprsssrrsttvvwwwwwwwwwvusrqqqqqrtuvvvvvvvvussuuuvvxz++++zzyxxvvvvvuttsrrtttrrtssttqpo
(PID.TID 0002.0001) //    221 nnmnnnnmnmmmmmmmmmlllllllllllllllllllllllllllllmnmlhfgkjjjjjjiiiiiiiiiiiiiijjjijklprrqqqrsqqpooooqvxyz++++++......++++zxurrqpppooppppqrppnmllllllllllkkkkkkkklllmnoqstuuvvwwwwwxyz++++++++++++++++++................................................++ztmllllllllkklklllllllllllllllkkllmpqqrrrsstvwwwwwwwwwwwvvsrqqqqqrstuvvvvvvvustuuvvwyz++++++zyxxwvvuuttstutrqrsttvrqpo
(PID.TID 0002.0001) //    220 nnnnnnnnnnnnmmmmmmlllllllllllllllllllllllllllllllllljhghjjkjjiiiiiiiiiiiiiiijiijkllmmlllmnmklkjkklotvwwxyz+zzz++++zzzyurpnnnmmmmmmmmmmmmmlllkkkkkkkjjjjjjjjjjjkkklmnoqrtuuvvwwwwwxz+++++++++++...+++................................................++xqlllllllllklkllklkkkklkkklllkkklllnopqqqrsstvwwwvvwwwwwvvvssrqqqrrssttuvvvvvttuuuvvxyz++.++++zyxwvuussstusqqqrsusrqpo
(PID.TID 0002.0001) //    219 nnnnnnnnnnnnnmmmmmllllllllllllllllllllllllllllllllkklkiihikllkiiiijkkjjjiiiiiiiijjkkllkkjjjjjjjjjjkmoqqrtsvxyyyyzzyxtronmllkkkkkkklllllllkkkkkjjjjjjjiiiiiiiiiijjjkklmoqrsuuuvvvwwwxyz++++++++++++++...............................................++ytolllllllllkklmmlmlkkkllllllkkkkklllnppqqqqrrtvvvvvvwwwwwvvvusrqqrrrrrrstvwwvvutuuvvwxyz++..+++zyxxwusstttqqrrtttsrqpn
(PID.TID 0002.0001) //    218 nnnnnnnnnnnnnmmmmmmlllllllllllllllllllllllllllllkkjkllllifghijlkijkkjjjjiiiiiiijjjjjjjjjjjjjjjjjjjjkllmmmponpquutsppnnmlkkkjjjjjjjkkkkkkkjjjjjjjjiiiiihhhhhhhhhhiiiijjklmoqrsstuutsstuxz++++++++++++++.+...........................................+ztolllllllllllkklllllllkklllllkkkkkkllmppqqqqqqqtuvuvvwwwwwwwvvusrrrrrrrrrstvvvvvuuuvvvwxyz+...+++zzzywvtttssrstrtsrrrqn
(PID.TID 0002.0001) //    217 nnnnnnnnnnnnnmmmmmmmllllllllllllllllllllllllllllkkkkllmmlkkkihggiijiiiihiijiiijjjiiiijjijkjiiijjjijjjjjjkklllmnnnmmmmlkkjjjjjjjjiijjjjjjjiiiiiiiihhhhhhhhhhhhhhhhhhhhiijjkkmnopppppppqruy+++....++++++++..........................................++vollllllllllllkklmlllkkkkkkklkkkkkkkkkloppqqqqqqqrttuvvwwwwwwwvvutssssssrrssttuuuuuuuvvwwxyz+..+++++zzzxussssssstsrrrrpl
(PID.TID 0002.0001) //    216 nnnnnnnnnnnnnmmmmmmmmlllllllllllllllllllllllllllkkkkkllllllkklmkmjhgghhhhiiiijjjjjjjjjjjjiiiiiiiiiijjjjjjjkkklllllllkkjjjjjjjiiiiiiiiiiiiiiiiihhhhhhhhhhhhhhhhhhhhhhhhhhhijjkklmnnnnnnnqvz+++++++++++++++........................................++zrllllllllllkkkkkllkllkkkkkkkkkkkkkkklklopppqqqqqqqsttuvwwwwwwwwvvutttssssssssttttuuuuvvvvwwyz++++++++zzwvssrrsssssrrrrol
(PID.TID 0002.0001) //    215 nnnnnnnnnnnnnnnnnmmmmllmllllllllllllllllllllllllkkkkkkkkkllllllllmnliiiihhiiijjkjjlkjjkjiikjiiiiiiijijjjjjjjkkkkkkkkkjjjjjjiiiiiihhhhhhhiihhhhhhhhhhhhhhhhhhhhhhhhhhhhhhhhhhhhijkkkkkklnqvz++++++++++++++........................................++wokklllllllkkkkkkkkkkkkmplkkkkklmkkkkkkklnopppqqqqqrstuvvwwwwwwwvvvuuttttssssssttttuuuvvuuvvwy+++++++++zwvtrrssssssrrrrnl
(PID.TID 0002.0001) //    214 nnnnnnnnmmnonnnnnnmmmmlnmllllllllllllllllllllllkkkkkkkkkkkkkkkkkkkkjiikmmljijiijlmijjjjjiijjiiiiiijjkkjjjjjjjjjjkkjjjjjjjiiiiiihhhhhhhhhhhhhhhhhhhhhhhhhhhhhhhhhhhhhhhhhhhhhhhhhiiiijjkkloquxy++++++++++++.......................................+zvmlllllllllkkkkkkkkkkkkqxmkkkkkkkjjjjjjjklllnpqqrrrrsstuvvwwvvvvvvvvvvuuuttttsssttttuuuuuuuvwxz++++++++zwvuttsssssssstrnk
(PID.TID 0002.0001) //    213 nnnnnnnmmloonnnnnnmmmmmmmmmmmmlllllllllllllllllkkkklmlkkkjjjkkkkkkjjjihiiimkjiiijijnjiijljiiijjjiiilkjjkjljjjjjjjjjjjjkjjiiiiiihhhhhhhhhhhhhhhhhhhhhhhhhhhhhhhhhhhhhhhhhhhhhhhhhhhhhiiijjklnoqsx++++++++++.......................................++umllllllllllkkkkkkkklkkmmkkkkkkkjjjjjjjjjjkllnpqrssrsstuvvvvvvvvvvvvwwvvvuuutttttttttuuuuuuuvwz++++++++zwvvuuutttttsstpmj
(PID.TID 0002.0001) //    212 nnnnnnnnmmoonnnnnnnmmmmmmmmmmmmmmllllllllllllllkkkklkkkkkkkkjjjjkkkkkjhijjijlmlkjiiiiijjjjlihijiiijijjkjjijjjkkjjkkkkkkkjiiiiijjhhhggggghhhhhhhhhhhhhhhhhhhhhhhhhhhhhhhhhhhhhhhhhhhhhiiiiijjjkmpvxyyzz+++........................................++vnllllllllllkkkkkklllkllkkkkkjjjjjjjjjjjjjjkklnpqrsstuuvvvvvvvvvvvvvwwwwwvvvuuttttttuuuvuuuuvwy++++.+++zyxwvvuuutvvuuspkl
(PID.TID 0002.0001) //    211 nnnnnnnnnnnnnnnnnnnnmmmmmmmmmmmmmllllmmllllllllkkkkkkkkkkkkkkkkkkkkkkjjklkjjkjijjjjkjjjiikjiijkjkkljjjiikljjkkjjkkjjjjjjjjjkjjihhhhhhhhhhhhhhhhhhhhhhhhhhhhhhhhhhhhhhhhhhhhhhhhhhhhhhhiiiiiiiijknrsvxxz+++.......................................+zumlllllllllllkkklllllkkkkkkkkjjjjjjjjjjjjjjjklnnoopqsuvvvvvvvvvvvvwwwxxxxwwvvvvuuuuuuuvvvvvvvwxz++....++zyyxwwxyvwxwwtnmn
(PID.TID 0002.0001) //    210 nnnnnnnnnnnnnnnnnnnnnnmnnnmmmmmmmmmmmmmmllllllllkkkkkkkkkkkkkkkkkkkkkkkllllkkkkkklmllkkkklkjjklmkllkjjjjkjiijljjjjjjjjjklljhhhhhhhhhhhhhhhhhhhhhhiihhhhhhhhhhhhhhhhhhhhhhhhhhhhhhhhhhhhiiiiiiiijjklptuwyz++.....................................++ysmlllllllllllkkklkkllklkkkkkjjjjjjjjjjjjjjjjkklmnnnoptvvvvvvvvvvvvwxxxxyxxxwwwwvvuuuuvvvvvvvvwxz++....+++zzzz++zzzyxwtnno
(PID.TID 0002.0001) //    209 oonnnnnnnnnnnnnnnnnnnnnnnnmmmmmmmmmmmmmmllllllllllllllllllkkkkjkkkkkkjjjkllllllmmmmllllllllkkllkllllkjljlkliijjkkklmjjjijjjjjiihhhhhhhhhhhhhhhhhhhhhhhhhhhhhhhhhhhhhhhhhhhhhhhhhhhhhhhhhiiiiiiiiijknqttuwz++.................+...........+++++++++xpmllllllllllkkkllklllllkkkkkjjjjjjjjjjjjjjjkkkklmmmnoruvvvvvvvvutuwxxyyyyyyxxxxwvvvvvvvvvvvvwwyz++.......+++++..++xvrpnno
(PID.TID 0002.0001) //    208 oooonnnnnnnnnnnnnnnnnnnnnnmmmmmmmmmmmmmmmllllllllllllllllllkkkkkkkkjjkkkkllllmnpnllllllllllkklllmlllkkklklljjijkkjihkjijjjiiiiiiiihhhihhhhhhhhhhhhhhhhhhhhhhhhhhhhhhhhhhhhhhhhhhhhhhhhhhhhhhhhhiiiknqrrstvxz+++.............+++........++++++++zzyuolllllllllkkkklllkklkkkkkkkkkjjjjjjjjjjjjjkkkkkllllmnqrtuvvvvvutstvwxyyzzyyyyyxxwwvvvvvvvvwwxyz++++.............+zyuqpono
(PID.TID 0002.0001) //    207 oooooooooooooonnnnnnnnnnnnnmmmmmmmmmmmmmmlllllllllllllllllllklkkjklkkkkklllllnnnlnmmlllllllllllmlkklkkjklljkjjiiijjjjjjjjkjjjjjiiiihiihhhhhhhhhhhhhhhhhhhhihhhhhhhhhhhhhhhhhhhhhhhhhhhhhhhhhhhhhiijklmnpqtuwyz++++++......++++........++++++yxwwwurmlllllllllkkkkllmkkllkkkklkkkkkjjjjjjkkkkkkkkkkllllmnpqrtuvvutsrsuvwxyzzzzzzyyyxxwwvvvvvwwxyzzz+++.............++zuqqpooo
(PID.TID 0002.0001) //    206 oooooooooooooooonnnnnnnnnnnnnnnmmmmmmmmmmllllllllllllllllllllllkkkllllllllllllmmmmmllllllllllllnlkkkkjjkkkkkkkjjjjjjjjjkklkjjjjjjjiiiihhhhhiihhhhhhhhhhhhhhhhhhhhhhhhhhhhhhhhhhhhhhhhhhhhhhhhhhhhiiijjlmnprtuvxz++++++...+++++++.....++++++zwsqsspmkllllllllkkkkkllkklllkkkklkkkkkkkkkkkkkkkkkkkkkllllmnopqsuuuusrrrtvwxyyyzzzzzyyyxxwwvvvwxzzz+z++++.............+zxsppoooo
[...]
(PID.TID 0002.0001)  cg2d: iter=  1241 ; resid.=  1.18424681042347E-06
(PID.TID 0002.0001)  cg2d: iter=  1242 ; resid.=  1.37014208807794E-06
(PID.TID 0002.0001)  cg2d: iter=  1243 ; resid.=  1.22280043154146E-06
(PID.TID 0002.0001)  cg2d: iter=  1244 ; resid.=  1.36108591546277E-06
(PID.TID 0002.0001)  cg2d: iter=  1245 ; resid.=  1.34842868194036E-06
(PID.TID 0002.0001)  cg2d: iter=  1246 ; resid.=  1.35690723574131E-06
(PID.TID 0002.0001)  cg2d: iter=  1247 ; resid.=  1.47038262380886E-06
(PID.TID 0002.0001)  cg2d: iter=  1248 ; resid.=  1.15998499202258E-06
(PID.TID 0002.0001)  cg2d: iter=  1249 ; resid.=  1.30838936297022E-06
(PID.TID 0002.0001)  cg2d: iter=  1250 ; resid.=  1.23032281783024E-06
(PID.TID 0002.0001)  cg2d: iter=  1251 ; resid.=  1.22441287337254E-06
(PID.TID 0002.0001)  cg2d: iter=  1252 ; resid.=  1.15945643927623E-06
(PID.TID 0002.0001)  cg2d: iter=  1253 ; resid.=  1.05516640271953E-06
(PID.TID 0002.0001)  cg2d: iter=  1254 ; resid.=  1.18013518991553E-06
(PID.TID 0002.0001)  cg2d: iter=  1255 ; resid.=  1.05951795257266E-06
(PID.TID 0002.0001)  cg2d: iter=  1256 ; resid.=  1.13219902095591E-06
(PID.TID 0002.0001)  cg2d: iter=  1257 ; resid.=  9.60020248995835E-07
(PID.TID 0002.0001)  cg2d: iter=  1258 ; resid.=  1.08385248020435E-06
(PID.TID 0002.0001)  cg2d: iter=  1259 ; resid.=  1.10059241590468E-06
(PID.TID 0002.0001)  cg2d: iter=  1260 ; resid.=  1.10036255375943E-06
(PID.TID 0002.0001)  cg2d: iter=  1261 ; resid.=  1.24814518879081E-06
(PID.TID 0002.0001)  cg2d: iter=  1262 ; resid.=  1.14131226984615E-06
(PID.TID 0002.0001)  cg2d: iter=  1263 ; resid.=  1.38101950023808E-06
(PID.TID 0002.0001)  cg2d: iter=  1264 ; resid.=  1.08883546211562E-06
(PID.TID 0002.0001)  cg2d: iter=  1265 ; resid.=  1.09750935094956E-06
(PID.TID 0002.0001)  cg2d: iter=  1266 ; resid.=  1.10947931532440E-06
(PID.TID 0002.0001)  cg2d: iter=  1267 ; resid.=  8.79795932940616E-07
(PID.TID 0002.0001)  cg2d: iter=  1268 ; resid.=  9.57432254981505E-07
(PID.TID 0002.0001)  cg2d: iter=  1269 ; resid.=  7.89224663057499E-07
(PID.TID 0002.0001)  cg2d: iter=  1270 ; resid.=  7.87987310621244E-07
(PID.TID 0002.0001)  cg2d: iter=  1271 ; resid.=  7.54558129562308E-07
(PID.TID 0002.0001)  cg2d: iter=  1272 ; resid.=  7.11065213290836E-07
(PID.TID 0002.0001)  cg2d: iter=  1273 ; resid.=  8.26328243707375E-07
(PID.TID 0002.0001)  cg2d: iter=  1274 ; resid.=  6.95869158458805E-07
(PID.TID 0002.0001)  cg2d: iter=  1275 ; resid.=  8.48406366413342E-07
(PID.TID 0002.0001)  cg2d: iter=  1276 ; resid.=  7.61987282962324E-07
(PID.TID 0002.0001)  cg2d: iter=  1277 ; resid.=  7.86531646642095E-07
(PID.TID 0002.0001)  cg2d: iter=  1278 ; resid.=  7.78291116692238E-07
(PID.TID 0002.0001)  cg2d: iter=  1279 ; resid.=  7.02932934263815E-07
(PID.TID 0002.0001)  cg2d: iter=  1280 ; resid.=  6.60159081996320E-07
(PID.TID 0002.0001)  cg2d: iter=  1281 ; resid.=  6.03248629614817E-07
(PID.TID 0002.0001)  cg2d: iter=  1282 ; resid.=  5.70280221663554E-07
(PID.TID 0002.0001)  cg2d: iter=  1283 ; resid.=  4.47784808880399E-07
(PID.TID 0002.0001)  cg2d: iter=  1284 ; resid.=  4.77786064787004E-07
(PID.TID 0002.0001)  cg2d: iter=  1285 ; resid.=  3.69370641198528E-07
(PID.TID 0002.0001)  cg2d: iter=  1286 ; resid.=  4.21827450554901E-07
(PID.TID 0002.0001)  cg2d: iter=  1287 ; resid.=  3.50557783380499E-07
(PID.TID 0002.0001)  cg2d: iter=  1288 ; resid.=  3.81000208793627E-07
(PID.TID 0002.0001)  cg2d: iter=  1289 ; resid.=  3.42777963604112E-07
(PID.TID 0002.0001)  cg2d: iter=  1290 ; resid.=  3.62813901311601E-07
(PID.TID 0002.0001)  cg2d: iter=  1291 ; resid.=  3.46891277222072E-07
(PID.TID 0002.0001)  cg2d: iter=  1292 ; resid.=  3.43236166205506E-07
(PID.TID 0002.0001)  cg2d: iter=  1293 ; resid.=  3.26282841316842E-07
(PID.TID 0002.0001)  cg2d: iter=  1294 ; resid.=  2.96466403697022E-07
(PID.TID 0002.0001)  cg2d: iter=  1295 ; resid.=  3.21119941280622E-07
(PID.TID 0002.0001)  cg2d: iter=  1296 ; resid.=  2.80401066088736E-07
(PID.TID 0002.0001)  cg2d: iter=  1297 ; resid.=  2.84595745333800E-07
(PID.TID 0002.0001)  cg2d: iter=  1298 ; resid.=  2.44690985601842E-07
(PID.TID 0002.0001)  cg2d: iter=  1299 ; resid.=  2.82494207309302E-07
(PID.TID 0002.0001)  cg2d: iter=  1300 ; resid.=  2.15808413708924E-07
(PID.TID 0002.0001)  cg2d: iter=  1301 ; resid.=  2.47609595685842E-07
(PID.TID 0002.0001)  cg2d: iter=  1302 ; resid.=  2.06917217783200E-07
(PID.TID 0002.0001)  cg2d: iter=  1303 ; resid.=  2.44587630234488E-07
(PID.TID 0002.0001)  cg2d: iter=  1304 ; resid.=  1.95637302352378E-07
(PID.TID 0002.0001)  cg2d: iter=  1305 ; resid.=  2.51878575056061E-07
(PID.TID 0002.0001)  cg2d: iter=  1306 ; resid.=  1.96167302004973E-07
(PID.TID 0002.0001)  cg2d: iter=  1307 ; resid.=  2.21808888225415E-07
(PID.TID 0002.0001)  cg2d: iter=  1308 ; resid.=  1.65139842929296E-07
(PID.TID 0002.0001)  cg2d: iter=  1309 ; resid.=  2.06070214100719E-07
(PID.TID 0002.0001)  cg2d: iter=  1310 ; resid.=  1.66661896555963E-07
(PID.TID 0002.0001)  cg2d: iter=  1311 ; resid.=  1.73614177242057E-07
(PID.TID 0002.0001)  cg2d: iter=  1312 ; resid.=  1.49816091398440E-07
(PID.TID 0002.0001)  cg2d: iter=  1313 ; resid.=  1.78568304696169E-07
(PID.TID 0002.0001)  cg2d: iter=  1314 ; resid.=  1.46956809004149E-07
(PID.TID 0002.0001)  cg2d: iter=  1315 ; resid.=  1.65716756735106E-07
(PID.TID 0002.0001)  cg2d: iter=  1316 ; resid.=  1.19335601471576E-07
(PID.TID 0002.0001)  cg2d: iter=  1317 ; resid.=  1.28612797062819E-07
(PID.TID 0002.0001)  cg2d: iter=  1318 ; resid.=  9.59147783790866E-08
(PID.TID 0002.0001)  cg2d: iter=  1319 ; resid.=  1.04846713170872E-07
(PID.TID 0002.0001)  cg2d: iter=  1320 ; resid.=  9.10607972288775E-08
(PID.TID 0002.0001)  cg2d: iter=  1321 ; resid.=  1.01787426161539E-07
(PID.TID 0002.0001)  cg2d: iter=  1322 ; resid.=  7.72715548414114E-08
(PID.TID 0002.0001)  cg2d: iter=  1323 ; resid.=  8.71330515816243E-08
(PID.TID 0002.0001)  cg2d: iter=  1324 ; resid.=  8.12111954920176E-08
(PID.TID 0002.0001)  cg2d: iter=  1325 ; resid.=  8.89099345973722E-08
(PID.TID 0002.0001)  cg2d: iter=  1326 ; resid.=  7.23378292578109E-08
(PID.TID 0002.0001)  cg2d: iter=  1327 ; resid.=  7.91430800782139E-08
(PID.TID 0002.0001)  cg2d: iter=  1328 ; resid.=  6.22139446133499E-08
(PID.TID 0002.0001)  cg2d: iter=  1329 ; resid.=  6.84701116268098E-08
(PID.TID 0002.0001)  cg2d: iter=  1330 ; resid.=  5.66694505800091E-08
(PID.TID 0002.0001)  cg2d: iter=  1331 ; resid.=  5.91593527310146E-08
(PID.TID 0002.0001)  cg2d: iter=  1332 ; resid.=  5.22267889674666E-08
(PID.TID 0002.0001)  cg2d: iter=  1333 ; resid.=  5.36562068505134E-08
(PID.TID 0002.0001)  cg2d: iter=  1334 ; resid.=  4.76482649669508E-08
(PID.TID 0002.0001)  cg2d: iter=  1335 ; resid.=  5.29676208046019E-08
(PID.TID 0002.0001)  cg2d: iter=  1336 ; resid.=  4.91049022816746E-08
(PID.TID 0002.0001)  cg2d: iter=  1337 ; resid.=  4.78024795176849E-08
(PID.TID 0002.0001)  cg2d: iter=  1338 ; resid.=  4.62602672771104E-08
(PID.TID 0002.0001)  cg2d: iter=  1339 ; resid.=  4.15489652159806E-08
(PID.TID 0002.0001)  cg2d: iter=  1340 ; resid.=  4.05246755950648E-08
(PID.TID 0002.0001)  cg2d: iter=  1341 ; resid.=  3.92589441310263E-08
(PID.TID 0002.0001)  cg2d: iter=  1342 ; resid.=  3.56056346339107E-08
(PID.TID 0002.0001)  cg2d: iter=  1343 ; resid.=  3.12931016353537E-08
(PID.TID 0002.0001)  cg2d: iter=  1344 ; resid.=  3.60913833205662E-08
(PID.TID 0002.0001)  cg2d: iter=  1345 ; resid.=  2.90336271396418E-08
(PID.TID 0002.0001)  cg2d: iter=  1346 ; resid.=  3.32749879014783E-08
(PID.TID 0002.0001)  cg2d: iter=  1347 ; resid.=  2.50882170602917E-08
(PID.TID 0002.0001)  cg2d: iter=  1348 ; resid.=  2.93857973082782E-08
(PID.TID 0002.0001)  cg2d: iter=  1349 ; resid.=  2.25379342987165E-08
(PID.TID 0002.0001)  cg2d: iter=  1350 ; resid.=  2.64416489975454E-08
(PID.TID 0002.0001)  cg2d: iter=  1351 ; resid.=  2.11316379381388E-08
(PID.TID 0002.0001)  cg2d: iter=  1352 ; resid.=  2.28849153246954E-08
(PID.TID 0002.0001)  cg2d: iter=  1353 ; resid.=  1.94352195265031E-08
(PID.TID 0002.0001)  cg2d: iter=  1354 ; resid.=  2.06265949082463E-08
(PID.TID 0002.0001)  cg2d: iter=  1355 ; resid.=  1.91920866854057E-08
(PID.TID 0002.0001)  cg2d: iter=  1356 ; resid.=  1.68130375701598E-08
(PID.TID 0002.0001)  cg2d: iter=  1357 ; resid.=  1.91520352409687E-08
(PID.TID 0002.0001)  cg2d: iter=  1358 ; resid.=  1.59377301732123E-08
(PID.TID 0002.0001)  cg2d: iter=  1359 ; resid.=  1.83466949374457E-08
(PID.TID 0002.0001)  cg2d: iter=  1360 ; resid.=  1.28306844657647E-08
(PID.TID 0002.0001)  cg2d: iter=  1361 ; resid.=  1.53589948970806E-08
(PID.TID 0002.0001)  cg2d: iter=  1362 ; resid.=  1.27176070484489E-08
(PID.TID 0002.0001)  cg2d: iter=  1363 ; resid.=  1.40606533771685E-08
(PID.TID 0002.0001)  cg2d: iter=  1364 ; resid.=  1.27929463654791E-08
(PID.TID 0002.0001)  cg2d: iter=  1365 ; resid.=  1.25398259690782E-08
(PID.TID 0002.0001)  cg2d: iter=  1366 ; resid.=  1.38996822068049E-08
(PID.TID 0002.0001)  cg2d: iter=  1367 ; resid.=  1.15295278471655E-08
(PID.TID 0002.0001)  cg2d: iter=  1368 ; resid.=  1.40533514562371E-08
(PID.TID 0002.0001)  cg2d: iter=  1369 ; resid.=  1.07503884251576E-08
(PID.TID 0002.0001)  cg2d: iter=  1370 ; resid.=  1.13588368712727E-08
(PID.TID 0002.0001)  cg2d: iter=  1371 ; resid.=  1.12981790224951E-08
(PID.TID 0002.0001)  cg2d: iter=  1372 ; resid.=  9.73170428451138E-09
(PID.TID 0002.0001) // =======================================================
(PID.TID 0002.0001) // Model current state
(PID.TID 0002.0001) // =======================================================
(PID.TID 0002.0001) 
(PID.TID 0002.0001) // =======================================================
(PID.TID 0002.0001) // Begin MONITOR dynamic field statistics
(PID.TID 0002.0001) // =======================================================
(PID.TID 0002.0001) %MON time_tsnumber                =                     0
(PID.TID 0002.0001) %MON time_secondsf                =   0.0000000000000E+00
(PID.TID 0002.0001) %MON dynstat_eta_max              =   0.0000000000000E+00
(PID.TID 0002.0001) %MON dynstat_eta_min              =   0.0000000000000E+00
(PID.TID 0002.0001) %MON dynstat_eta_mean             =   0.0000000000000E+00
(PID.TID 0002.0001) %MON dynstat_eta_sd               =   0.0000000000000E+00
(PID.TID 0002.0001) %MON dynstat_eta_del2             =   0.0000000000000E+00
(PID.TID 0002.0001) %MON dynstat_uvel_max             =   0.0000000000000E+00
(PID.TID 0002.0001) %MON dynstat_uvel_min             =   0.0000000000000E+00
(PID.TID 0002.0001) %MON dynstat_uvel_mean            =   0.0000000000000E+00
(PID.TID 0002.0001) %MON dynstat_uvel_sd              =   0.0000000000000E+00
(PID.TID 0002.0001) %MON dynstat_uvel_del2            =   0.0000000000000E+00
(PID.TID 0002.0001) %MON dynstat_vvel_max             =   0.0000000000000E+00
(PID.TID 0002.0001) %MON dynstat_vvel_min             =   0.0000000000000E+00
(PID.TID 0002.0001) %MON dynstat_vvel_mean            =   0.0000000000000E+00
(PID.TID 0002.0001) %MON dynstat_vvel_sd              =   0.0000000000000E+00
(PID.TID 0002.0001) %MON dynstat_vvel_del2            =   0.0000000000000E+00
(PID.TID 0002.0001) %MON dynstat_wvel_max             =  -0.0000000000000E+00
(PID.TID 0002.0001) %MON dynstat_wvel_min             =  -0.0000000000000E+00
(PID.TID 0002.0001) %MON dynstat_wvel_mean            =   0.0000000000000E+00
(PID.TID 0002.0001) %MON dynstat_wvel_sd              =   0.0000000000000E+00
(PID.TID 0002.0001) %MON dynstat_wvel_del2            =   0.0000000000000E+00
(PID.TID 0002.0001) %MON dynstat_theta_max            =   2.0000000000000E+01
(PID.TID 0002.0001) %MON dynstat_theta_min            =   2.0000000000000E+01
(PID.TID 0002.0001) %MON dynstat_theta_mean           =   2.0000000000000E+01
(PID.TID 0002.0001) %MON dynstat_theta_sd             =   8.1712414612411E-14
(PID.TID 0002.0001) %MON dynstat_theta_del2           =   0.0000000000000E+00
(PID.TID 0002.0001) %MON dynstat_salt_max             =   3.0000000000000E+01
(PID.TID 0002.0001) %MON dynstat_salt_min             =   3.0000000000000E+01
(PID.TID 0002.0001) %MON dynstat_salt_mean            =   3.0000000000000E+01
(PID.TID 0002.0001) %MON dynstat_salt_sd              =   2.0605739337043E-13
(PID.TID 0002.0001) %MON dynstat_salt_del2            =   0.0000000000000E+00
(PID.TID 0002.0001) %MON dynstat_sst_max              =   2.0000000000000E+01
(PID.TID 0002.0001) %MON dynstat_sst_min              =   2.0000000000000E+01
(PID.TID 0002.0001) %MON dynstat_sst_mean             =   1.9999999999998E+01
(PID.TID 0002.0001) %MON dynstat_sst_sd               =   2.4584778657296E-12
(PID.TID 0002.0001) %MON dynstat_sst_del2             =   0.0000000000000E+00
(PID.TID 0002.0001) %MON dynstat_sss_max              =   3.0000000000000E+01
(PID.TID 0002.0001) %MON dynstat_sss_min              =   3.0000000000000E+01
(PID.TID 0002.0001) %MON dynstat_sss_mean             =   2.9999999999996E+01
(PID.TID 0002.0001) %MON dynstat_sss_sd               =   4.4231285301062E-12
(PID.TID 0002.0001) %MON dynstat_sss_del2             =   0.0000000000000E+00
(PID.TID 0002.0001) %MON forcing_qnet_max             =   0.0000000000000E+00
(PID.TID 0002.0001) %MON forcing_qnet_min             =   0.0000000000000E+00
(PID.TID 0002.0001) %MON forcing_qnet_mean            =   0.0000000000000E+00
(PID.TID 0002.0001) %MON forcing_qnet_sd              =   0.0000000000000E+00
(PID.TID 0002.0001) %MON forcing_qnet_del2            =   0.0000000000000E+00
(PID.TID 0002.0001) %MON forcing_qsw_max              =   0.0000000000000E+00
(PID.TID 0002.0001) %MON forcing_qsw_min              =   0.0000000000000E+00
(PID.TID 0002.0001) %MON forcing_qsw_mean             =   0.0000000000000E+00
(PID.TID 0002.0001) %MON forcing_qsw_sd               =   0.0000000000000E+00
(PID.TID 0002.0001) %MON forcing_qsw_del2             =   0.0000000000000E+00
(PID.TID 0002.0001) %MON forcing_empmr_max            =   0.0000000000000E+00
(PID.TID 0002.0001) %MON forcing_empmr_min            =   0.0000000000000E+00
(PID.TID 0002.0001) %MON forcing_empmr_mean           =   0.0000000000000E+00
(PID.TID 0002.0001) %MON forcing_empmr_sd             =   0.0000000000000E+00
(PID.TID 0002.0001) %MON forcing_empmr_del2           =   0.0000000000000E+00
(PID.TID 0002.0001) %MON forcing_fu_max               =   0.0000000000000E+00
(PID.TID 0002.0001) %MON forcing_fu_min               =   0.0000000000000E+00
(PID.TID 0002.0001) %MON forcing_fu_mean              =   0.0000000000000E+00
(PID.TID 0002.0001) %MON forcing_fu_sd                =   0.0000000000000E+00
(PID.TID 0002.0001) %MON forcing_fu_del2              =   0.0000000000000E+00
(PID.TID 0002.0001) %MON forcing_fv_max               =   0.0000000000000E+00
(PID.TID 0002.0001) %MON forcing_fv_min               =   0.0000000000000E+00
(PID.TID 0002.0001) %MON forcing_fv_mean              =   0.0000000000000E+00
(PID.TID 0002.0001) %MON forcing_fv_sd                =   0.0000000000000E+00
(PID.TID 0002.0001) %MON forcing_fv_del2              =   0.0000000000000E+00
(PID.TID 0002.0001) %MON trAdv_CFL_u_max              =   0.0000000000000E+00
(PID.TID 0002.0001) %MON trAdv_CFL_v_max              =   0.0000000000000E+00
(PID.TID 0002.0001) %MON trAdv_CFL_w_max              =   0.0000000000000E+00
(PID.TID 0002.0001) %MON advcfl_uvel_max              =   0.0000000000000E+00
(PID.TID 0002.0001) %MON advcfl_vvel_max              =   0.0000000000000E+00
(PID.TID 0002.0001) %MON advcfl_wvel_max              =   0.0000000000000E+00
(PID.TID 0002.0001) %MON advcfl_W_hf_max              =   0.0000000000000E+00
(PID.TID 0002.0001) %MON pe_b_mean                    =   0.0000000000000E+00
(PID.TID 0002.0001) %MON ke_max                       =   0.0000000000000E+00
(PID.TID 0002.0001) %MON ke_mean                      =   0.0000000000000E+00
(PID.TID 0002.0001) %MON ke_vol                       =   1.3390214028633E+18
(PID.TID 0002.0001) %MON vort_r_min                   =   0.0000000000000E+00
(PID.TID 0002.0001) %MON vort_r_max                   =   0.0000000000000E+00
(PID.TID 0002.0001) %MON vort_a_mean                  =  -1.3013328496589E-05
(PID.TID 0002.0001) %MON vort_a_sd                    =   8.0374144259079E-05
(PID.TID 0002.0001) %MON vort_p_mean                  =  -4.0285224932342E-05
(PID.TID 0002.0001) %MON vort_p_sd                    =   2.8329417776011E-03
(PID.TID 0002.0001) %MON surfExpan_theta_mean         =   0.0000000000000E+00
(PID.TID 0002.0001) %MON surfExpan_salt_mean          =   0.0000000000000E+00
(PID.TID 0002.0001) // =======================================================
(PID.TID 0002.0001) // End MONITOR dynamic field statistics
(PID.TID 0002.0001) // =======================================================
(PID.TID 0002.0001)   Seconds in section "ALL                    [THE_MODEL_MAIN]":
(PID.TID 0002.0001)           User time:   3.9803891666233540
(PID.TID 0002.0001)         System time:   8.3948999643325806E-002
(PID.TID 0002.0001)     Wall clock time:   5.2207767963409424
(PID.TID 0002.0001)          No. starts:           1
(PID.TID 0002.0001)           No. stops:           1
(PID.TID 0002.0001)   Seconds in section "INITIALISE_FIXED       [THE_MODEL_MAIN]":
(PID.TID 0002.0001)           User time:  0.10490400716662407
(PID.TID 0002.0001)         System time:   1.9780999049544334E-002
(PID.TID 0002.0001)     Wall clock time:  0.22377181053161621
(PID.TID 0002.0001)          No. starts:           1
(PID.TID 0002.0001)           No. stops:           1
(PID.TID 0002.0001)   Seconds in section "THE_MAIN_LOOP          [THE_MODEL_MAIN]":
(PID.TID 0002.0001)           User time:   3.8754728734493256
(PID.TID 0002.0001)         System time:   6.4151000231504440E-002
(PID.TID 0002.0001)     Wall clock time:   4.9968428611755371
(PID.TID 0002.0001)          No. starts:           1
(PID.TID 0002.0001)           No. stops:           1
(PID.TID 0002.0001)   Seconds in section "INITIALISE_VARIA    [THE_MAIN_LOOP]":
(PID.TID 0002.0001)           User time:   3.8754521906375885
(PID.TID 0002.0001)         System time:   6.4137998968362808E-002
(PID.TID 0002.0001)     Wall clock time:   4.9968118667602539
(PID.TID 0002.0001)          No. starts:           1
(PID.TID 0002.0001)           No. stops:           1
(PID.TID 0002.0001)   Seconds in section "MAIN LOOP           [THE_MAIN_LOOP]":
(PID.TID 0002.0001)           User time:   6.1988830566406250E-006
(PID.TID 0002.0001)         System time:   1.9967555999755859E-006
(PID.TID 0002.0001)     Wall clock time:   6.9141387939453125E-006
(PID.TID 0002.0001)          No. starts:           1
(PID.TID 0002.0001)           No. stops:           1
(PID.TID 0002.0001) // ======================================================
(PID.TID 0002.0001) // Tile <-> Tile communication statistics
(PID.TID 0002.0001) // ======================================================
(PID.TID 0002.0001) // o Tile number: 000002
(PID.TID 0002.0001) //         No. X exchanges =              0
(PID.TID 0002.0001) //            Max. X spins =              0
(PID.TID 0002.0001) //            Min. X spins =     1000000000
(PID.TID 0002.0001) //          Total. X spins =              0
(PID.TID 0002.0001) //            Avg. X spins =       0.00E+00
(PID.TID 0002.0001) //         No. Y exchanges =              0
(PID.TID 0002.0001) //            Max. Y spins =              0
(PID.TID 0002.0001) //            Min. Y spins =     1000000000
(PID.TID 0002.0001) //          Total. Y spins =              0
(PID.TID 0002.0001) //            Avg. Y spins =       0.00E+00
(PID.TID 0002.0001) // o Thread number: 000001
(PID.TID 0002.0001) //            No. barriers =           8794
(PID.TID 0002.0001) //      Max. barrier spins =              1
(PID.TID 0002.0001) //      Min. barrier spins =              1
(PID.TID 0002.0001) //     Total barrier spins =           8794
(PID.TID 0002.0001) //      Avg. barrier spins =       1.00E+00
PROGRAM MAIN: Execution ended Normally
