(PID.TID 0042.0001) 
(PID.TID 0042.0001) // ======================================================
(PID.TID 0042.0001) //                      MITgcm UV
(PID.TID 0042.0001) //                      =========
(PID.TID 0042.0001) // ======================================================
(PID.TID 0042.0001) // execution environment starting up...
(PID.TID 0042.0001) 
(PID.TID 0042.0001) // MITgcmUV version:  checkpoint69m
(PID.TID 0042.0001) // Build user:        hmh85
(PID.TID 0042.0001) // Build host:        onode13
(PID.TID 0042.0001) // Build date:        Wed Jun 10 10:15:02 EEST 2026
(PID.TID 0042.0001) 
(PID.TID 0042.0001) // =======================================================
(PID.TID 0042.0001) // Execution Environment parameter file "eedata"
(PID.TID 0042.0001) // =======================================================
(PID.TID 0042.0001) ># Example "eedata" file
(PID.TID 0042.0001) ># Lines beginning "#" are comments
(PID.TID 0042.0001) ># nTx - No. threads per process in X
(PID.TID 0042.0001) ># nTy - No. threads per process in Y
(PID.TID 0042.0001) > &EEPARMS
(PID.TID 0042.0001) > /
(PID.TID 0042.0001) ># Note: Some systems use & as the
(PID.TID 0042.0001) ># namelist terminator. Other systems
(PID.TID 0042.0001) ># use a / character (as shown here).
(PID.TID 0042.0001) 
(PID.TID 0042.0001) // =======================================================
(PID.TID 0042.0001) // Computational Grid Specification ( see files "SIZE.h" )
(PID.TID 0042.0001) //                                  ( and "eedata"       )
(PID.TID 0042.0001) // =======================================================
(PID.TID 0042.0001)      nPx =   12 ; /* No. processes in X */
(PID.TID 0042.0001)      nPy =    4 ; /* No. processes in Y */
(PID.TID 0042.0001)      nSx =    1 ; /* No. tiles in X per process */
(PID.TID 0042.0001)      nSy =    1 ; /* No. tiles in Y per process */
(PID.TID 0042.0001)      sNx =  120 ; /* Tile size in X */
(PID.TID 0042.0001)      sNy =  180 ; /* Tile size in Y */
(PID.TID 0042.0001)      OLx =    2 ; /* Tile overlap distance in X */
(PID.TID 0042.0001)      OLy =    2 ; /* Tile overlap distance in Y */
(PID.TID 0042.0001)      nTx =    1 ; /* No. threads in X per process */
(PID.TID 0042.0001)      nTy =    1 ; /* No. threads in Y per process */
(PID.TID 0042.0001)       Nr =    1 ; /* No. levels in the vertical   */
(PID.TID 0042.0001)       Nx = 1440 ; /* Total domain size in X ( = nPx*nSx*sNx ) */
(PID.TID 0042.0001)       Ny =  720 ; /* Total domain size in Y ( = nPy*nSy*sNy ) */
(PID.TID 0042.0001)   nTiles =    1 ; /* Total no. tiles per process ( = nSx*nSy ) */
(PID.TID 0042.0001)   nProcs =   48 ; /* Total no. processes ( = nPx*nPy ) */
(PID.TID 0042.0001) nThreads =    1 ; /* Total no. threads per process ( = nTx*nTy ) */
(PID.TID 0042.0001) usingMPI =    T ; /* Flag used to control whether MPI is in use */
(PID.TID 0042.0001)                   /*  note: To execute a program with MPI calls */
(PID.TID 0042.0001)                   /*  it must be launched appropriately e.g     */
(PID.TID 0042.0001)                   /*  "mpirun -np 64 ......"                    */
(PID.TID 0042.0001) useCoupler=   F ; /* Flag used to control communications with   */
(PID.TID 0042.0001)                   /*  other model components, through a coupler */
(PID.TID 0042.0001) useNest2W_parent =    F ;/* Control 2-W Nesting comm */
(PID.TID 0042.0001) useNest2W_child  =    F ;/* Control 2-W Nesting comm */
(PID.TID 0042.0001) debugMode =    F ; /* print debug msg. (sequence of S/R calls)  */
(PID.TID 0042.0001) printMapIncludesZeros=    F ; /* print zeros in Std.Output maps */
(PID.TID 0042.0001) maxLengthPrt1D=   65 /* maxLength of 1D array printed to StdOut */
(PID.TID 0042.0001) 
(PID.TID 0042.0001) ======= Starting MPI parallel Run =========
(PID.TID 0042.0001)  My Processor Name (len:  7 ) = onode13
(PID.TID 0042.0001)  Located at ( 10,  2) on processor grid (0: 11,0:  3)
(PID.TID 0042.0001)  Origin at  (  1201,   361) on global grid (1:  1440,1:   720)
(PID.TID 0042.0001)  North neighbor = processor 0043
(PID.TID 0042.0001)  South neighbor = processor 0041
(PID.TID 0042.0001)   East neighbor = processor 0046
(PID.TID 0042.0001)   West neighbor = processor 0038
(PID.TID 0042.0001) // ======================================================
(PID.TID 0042.0001) // Mapping of tiles to threads
(PID.TID 0042.0001) // ======================================================
(PID.TID 0042.0001) // -o- Thread   1, tiles (   1:   1,   1:   1)
(PID.TID 0042.0001) 
(PID.TID 0042.0001) // ======================================================
(PID.TID 0042.0001) // Tile <-> Tile connectvity table
(PID.TID 0042.0001) // ======================================================
(PID.TID 0042.0001) // Tile number: 000035 (process no. = 000042)
(PID.TID 0042.0001) //        WEST: Tile = 000034, Process = 000038, Comm = messages
(PID.TID 0042.0001) //                bi = 000001, bj = 000001
(PID.TID 0042.0001) //        EAST: Tile = 000036, Process = 000046, Comm = messages
(PID.TID 0042.0001) //                bi = 000001, bj = 000001
(PID.TID 0042.0001) //       SOUTH: Tile = 000023, Process = 000041, Comm = messages
(PID.TID 0042.0001) //                bi = 000001, bj = 000001
(PID.TID 0042.0001) //       NORTH: Tile = 000047, Process = 000043, Comm = messages
(PID.TID 0042.0001) //                bi = 000001, bj = 000001
(PID.TID 0042.0001) 
(PID.TID 0042.0001)  INI_PARMS: opening model parameter file "data"
(PID.TID 0042.0001)  OPEN_COPY_DATA_FILE: opening file data
(PID.TID 0042.0001) // =======================================================
(PID.TID 0042.0001) // Parameter file "data"
(PID.TID 0042.0001) // =======================================================
(PID.TID 0042.0001) ># ===============================================================
(PID.TID 0042.0001) ># Vortex Sphere MITgcm Reference Case (MITgcm native solve)
(PID.TID 0042.0001) ># One-layer, global lat-lon, linearized barotropic dynamics.
(PID.TID 0042.0001) ># ===============================================================
(PID.TID 0042.0001) >
(PID.TID 0042.0001) ># Continuous equation parameters
(PID.TID 0042.0001) >&PARM01
(PID.TID 0042.0001) ># Planet / fluid
(PID.TID 0042.0001) > omega = 7.292E-5,
(PID.TID 0042.0001) > gravity = 9.81,
(PID.TID 0042.0001) > rhoConst = 1.,
(PID.TID 0042.0001) > buoyancyRelation = 'OCEANIC',
(PID.TID 0042.0001) > eosType = 'LINEAR',
(PID.TID 0042.0001) >
(PID.TID 0042.0001) ># Dynamics switches
(PID.TID 0042.0001) > rigidLid               = .FALSE.,
(PID.TID 0042.0001) > implicitFreeSurface    = .TRUE.,
(PID.TID 0042.0001) > exactConserv           = .TRUE.,
(PID.TID 0042.0001) > momStepping            = .TRUE.,
(PID.TID 0042.0001) > momAdvection           = .TRUE.,
(PID.TID 0042.0001) > useCoriolis            = .TRUE.,
(PID.TID 0042.0001) > tempStepping           = .FALSE.,
(PID.TID 0042.0001) > saltStepping           = .FALSE.,
(PID.TID 0042.0001) >
(PID.TID 0042.0001) ># Viscosity / diffusion (set to zero to stay close to inviscid linear regime)
(PID.TID 0042.0001) > viscAh = 0.,
(PID.TID 0042.0001) > viscA4 = 0.,
(PID.TID 0042.0001) > diffKhT = 0.,
(PID.TID 0042.0001) > no_slip_sides = .FALSE.,
(PID.TID 0042.0001) > no_slip_bottom = .FALSE.,
(PID.TID 0042.0001) > hFacMin = 1.E-5,
(PID.TID 0042.0001) > hFacMinDr = 0.5,
(PID.TID 0042.0001) >
(PID.TID 0042.0001) ># I/O precision
(PID.TID 0042.0001) > readBinaryPrec = 32,
(PID.TID 0042.0001) > writeBinaryPrec = 64,
(PID.TID 0042.0001) > useSingleCpuIO = .TRUE.,
(PID.TID 0042.0001) >/
(PID.TID 0042.0001) >
(PID.TID 0042.0001) ># Elliptic solver parameters
(PID.TID 0042.0001) >&PARM02
(PID.TID 0042.0001) > cg2dMaxIters = 5000,
(PID.TID 0042.0001) > cg2dTargetResidual = 1.E-10,
(PID.TID 0042.0001) > cg2dPreCondFreq = 1,
(PID.TID 0042.0001) > useSRCGSolver = .TRUE.,
(PID.TID 0042.0001) >/
(PID.TID 0042.0001) >
(PID.TID 0042.0001) ># Time stepping parameters
(PID.TID 0042.0001) >&PARM03
(PID.TID 0042.0001) > nIter0=0,
(PID.TID 0042.0001) > nTimeSteps= 17280 ,
(PID.TID 0042.0001) > abEps=0.1,
(PID.TID 0042.0001) > deltaT=60.,
(PID.TID 0042.0001) > cAdjFreq=0.,
(PID.TID 0042.0001) > pChkptFreq=0.,
(PID.TID 0042.0001) > chkptFreq=0.,
(PID.TID 0042.0001) > dumpFreq=86400.,
(PID.TID 0042.0001) > monitorSelect=1,
(PID.TID 0042.0001) > monitorFreq=86400.,
(PID.TID 0042.0001) >/
(PID.TID 0042.0001) >
(PID.TID 0042.0001) ># Grid parameters
(PID.TID 0042.0001) >&PARM04
(PID.TID 0042.0001) > usingSphericalPolarGrid = .TRUE.,
(PID.TID 0042.0001) > delX = 1440*0.25,
(PID.TID 0042.0001) > delY = 720*0.25,
(PID.TID 0042.0001) > xgOrigin = 0.,
(PID.TID 0042.0001) > ygOrigin = -90.,
(PID.TID 0042.0001) > rSphere = 6371000.,
(PID.TID 0042.0001) > delR = 2996.9418960244646,
(PID.TID 0042.0001) >/
(PID.TID 0042.0001) >
(PID.TID 0042.0001) ># Input datasets
(PID.TID 0042.0001) >&PARM05
(PID.TID 0042.0001) > bathyFile = 'bathymetry_flat4000.bin',
(PID.TID 0042.0001) > pSurfInitFile = 'eta_init.bin',
(PID.TID 0042.0001) > uVelInitFile  = 'u_init.bin',
(PID.TID 0042.0001) > vVelInitFile  = 'v_init.bin',
(PID.TID 0042.0001) >/
(PID.TID 0042.0001) 
(PID.TID 0042.0001)  INI_PARMS ; starts to read PARM01
(PID.TID 0042.0001)  INI_PARMS ; read PARM01 : OK
(PID.TID 0042.0001)  INI_PARMS ; starts to read PARM02
(PID.TID 0042.0001)  INI_PARMS ; read PARM02 : OK
(PID.TID 0042.0001)  INI_PARMS ; starts to read PARM03
(PID.TID 0042.0001)  INI_PARMS ; read PARM03 : OK
(PID.TID 0042.0001)  INI_PARMS ; starts to read PARM04
(PID.TID 0042.0001)  INI_PARMS ; read PARM04 : OK
(PID.TID 0042.0001)  INI_PARMS ; starts to read PARM05
(PID.TID 0042.0001)  INI_PARMS ; read PARM05 : OK
(PID.TID 0042.0001)  INI_PARMS: finished reading file "data"
(PID.TID 0042.0001)  PACKAGES_BOOT: opening data.pkg
(PID.TID 0042.0001)  OPEN_COPY_DATA_FILE: opening file data.pkg
(PID.TID 0042.0001) // =======================================================
(PID.TID 0042.0001) // Parameter file "data.pkg"
(PID.TID 0042.0001) // =======================================================
(PID.TID 0042.0001) ># Packages
(PID.TID 0042.0001) > &PACKAGES
(PID.TID 0042.0001) > useDiagnostics=.TRUE.,
(PID.TID 0042.0001) > /
(PID.TID 0042.0001) 
(PID.TID 0042.0001)  PACKAGES_BOOT: finished reading data.pkg
(PID.TID 0042.0001)  PACKAGES_BOOT: On/Off package Summary
 --------  pkgs with a standard "usePKG" On/Off switch in "data.pkg":  --------
 pkg/diagnostics          compiled   and   used ( useDiagnostics           = T )
 -------- pkgs without standard "usePKG" On/Off switch in "data.pkg":  --------
 pkg/mom_common           compiled   and   used ( momStepping              = T )
 pkg/mom_vecinv           compiled but not used ( +vectorInvariantMomentum = F )
 pkg/mom_fluxform         compiled   and   used ( & not vectorInvariantMom = T )
 pkg/monitor              compiled   and   used ( monitorFreq > 0.         = T )
 pkg/rw                   compiled   and   used
 pkg/mdsio                compiled   and   used
(PID.TID 0042.0001)  PACKAGES_BOOT: End of package Summary
(PID.TID 0042.0001) 
(PID.TID 0042.0001)  DIAGNOSTICS_READPARMS: opening data.diagnostics
(PID.TID 0042.0001)  OPEN_COPY_DATA_FILE: opening file data.diagnostics
(PID.TID 0042.0001) // =======================================================
(PID.TID 0042.0001) // Parameter file "data.diagnostics"
(PID.TID 0042.0001) // =======================================================
(PID.TID 0042.0001) ># Diagnostic Package Choices
(PID.TID 0042.0001) >#--------------------
(PID.TID 0042.0001) >#  dumpAtLast (logical): always write output at the end of simulation (default=F)
(PID.TID 0042.0001) >#  diag_mnc   (logical): write to NetCDF files (default=useMNC)
(PID.TID 0042.0001) >#--for each output-stream:
(PID.TID 0042.0001) >#  fileName(n) : prefix of the output file name (max 80c long) for outp.stream n
(PID.TID 0042.0001) >#  frequency(n):< 0 : write snap-shot output every |frequency| seconds
(PID.TID 0042.0001) >#               > 0 : write time-average output every frequency seconds
(PID.TID 0042.0001) >#  timePhase(n)     : write at time = timePhase + multiple of |frequency|
(PID.TID 0042.0001) >#    averagingFreq  : frequency (in s) for periodic averaging interval
(PID.TID 0042.0001) >#    averagingPhase : phase     (in s) for periodic averaging interval
(PID.TID 0042.0001) >#    repeatCycle    : number of averaging intervals in 1 cycle
(PID.TID 0042.0001) >#  levels(:,n) : list of levels to write to file (Notes: declared as REAL)
(PID.TID 0042.0001) >#                when this entry is missing, select all common levels of this list
(PID.TID 0042.0001) >#  fields(:,n) : list of selected diagnostics fields (8.c) in outp.stream n
(PID.TID 0042.0001) >#                (see "available_diagnostics.log" file for the full list of diags)
(PID.TID 0042.0001) >#  missing_value(n) : missing value for real-type fields in output file "n"
(PID.TID 0042.0001) >#  fileFlags(n)     : specific code (8c string) for output file "n"
(PID.TID 0042.0001) >#--------------------
(PID.TID 0042.0001) > &DIAGNOSTICS_LIST
(PID.TID 0042.0001) ># diag_mnc     = .FALSE.,
(PID.TID 0042.0001) ># useMissingValue=.TRUE.,
(PID.TID 0042.0001) >  xPsi0 = 135.,
(PID.TID 0042.0001) >  yPsi0 =  0.,
(PID.TID 0042.0001) >#--
(PID.TID 0042.0001) >  fields(1:5,3) = 'UVELMASS','VVELMASS',
(PID.TID 0042.0001) >                  'ETAN    ','ETANSQ  ','DETADT2 ',
(PID.TID 0042.0001) >  fileName(3) = 'dynDiag',
(PID.TID 0042.0001) >  frequency(3) = -86400.,
(PID.TID 0042.0001) >  timePhase(3) = 0.,
(PID.TID 0042.0001) >
(PID.TID 0042.0001) >  fields(1:3,2) = 'WVELMASS','PhiVEL  ','PsiVEL  ',
(PID.TID 0042.0001) >   fileName(2) = 'dyn_Aux',
(PID.TID 0042.0001) ># fileFlags(2) = 'D       ',
(PID.TID 0042.0001) >  frequency(2) = -86400.,
(PID.TID 0042.0001) >  timePhase(2) = 0.,
(PID.TID 0042.0001) > /
(PID.TID 0042.0001) >
(PID.TID 0042.0001) >#--------------------
(PID.TID 0042.0001) ># Parameter for Diagnostics of per level statistics:
(PID.TID 0042.0001) >#--------------------
(PID.TID 0042.0001) >#  diagSt_mnc (logical): write stat-diags to NetCDF files (default=diag_mnc)
(PID.TID 0042.0001) >#  diagSt_regMaskFile : file containing the region-mask to read-in
(PID.TID 0042.0001) >#  nSetRegMskFile   : number of region-mask sets within the region-mask file
(PID.TID 0042.0001) >#  set_regMask(i)   : region-mask set-index that identifies the region "i"
(PID.TID 0042.0001) >#  val_regMask(i)   : region "i" identifier value in the region mask
(PID.TID 0042.0001) >#--for each output-stream:
(PID.TID 0042.0001) >#  stat_fName(n) : prefix of the output file name (max 80c long) for outp.stream n
(PID.TID 0042.0001) >#  stat_freq(n):< 0 : write snap-shot output every |stat_freq| seconds
(PID.TID 0042.0001) >#               > 0 : write time-average output every stat_freq seconds
(PID.TID 0042.0001) >#  stat_phase(n)    : write at time = stat_phase + multiple of |stat_freq|
(PID.TID 0042.0001) >#  stat_region(:,n) : list of "regions" (default: 1 region only=global)
(PID.TID 0042.0001) >#  stat_fields(:,n) : list of selected diagnostics fields (8.c) in outp.stream n
(PID.TID 0042.0001) >#                (see "available_diagnostics.log" file for the full list of diags)
(PID.TID 0042.0001) >#--------------------
(PID.TID 0042.0001) > &DIAG_STATIS_PARMS
(PID.TID 0042.0001) ># diagSt_mnc    = .TRUE.,
(PID.TID 0042.0001) > stat_fields(1:5,1)  = 'ETAN    ','ETANSQ  ','DETADT2 ',
(PID.TID 0042.0001) >                       'UVEL    ','VVEL    ',
(PID.TID 0042.0001) >  stat_fName(1) = 'dynStDiag',
(PID.TID 0042.0001) >   stat_freq(1) = -86400.,
(PID.TID 0042.0001) >  stat_phase(1) = 0.,
(PID.TID 0042.0001) > /
(PID.TID 0042.0001) >
(PID.TID 0042.0001) 
(PID.TID 0042.0001) S/R DIAGNOSTICS_READPARMS, read namelist "diagnostics_list": start
(PID.TID 0042.0001) S/R DIAGNOSTICS_READPARMS, read namelist "diagnostics_list": OK
(PID.TID 0042.0001) S/R DIAGNOSTICS_READPARMS, read namelist "DIAG_STATIS_PARMS": start
(PID.TID 0042.0001) S/R DIAGNOSTICS_READPARMS, read namelist "DIAG_STATIS_PARMS": OK
(PID.TID 0042.0001) -----------------------------------------------------
(PID.TID 0042.0001)  DIAGNOSTICS_READPARMS: global parameter summary:
(PID.TID 0042.0001)  diag_dBugLevel = /* level of printed debug messages */
(PID.TID 0042.0001)                       2
(PID.TID 0042.0001)     ;
(PID.TID 0042.0001)  dumpAtLast = /* always write time-ave diags at the end */
(PID.TID 0042.0001)                   F
(PID.TID 0042.0001)     ;
(PID.TID 0042.0001)  diag_mnc =   /* write NetCDF output files */
(PID.TID 0042.0001)                   F
(PID.TID 0042.0001)     ;
(PID.TID 0042.0001)  useMissingValue = /* put MissingValue where mask = 0 */
(PID.TID 0042.0001)                   F
(PID.TID 0042.0001)     ;
(PID.TID 0042.0001)  diagCG_maxIters = /* max number of iters in diag_cg2d */
(PID.TID 0042.0001)                    5000
(PID.TID 0042.0001)     ;
(PID.TID 0042.0001)  diagCG_resTarget = /* residual target for diag_cg2d */
(PID.TID 0042.0001)                 1.000000000000000E-10
(PID.TID 0042.0001)     ;
(PID.TID 0042.0001)  diagCG_pcOffDFac = /* preconditioner off-diagonal factor */
(PID.TID 0042.0001)                 9.611687812379854E-01
(PID.TID 0042.0001)     ;
(PID.TID 0042.0001) -----------------------------------------------------
(PID.TID 0042.0001)  DIAGNOSTICS_READPARMS: active diagnostics summary:
(PID.TID 0042.0001) -----------------------------------------------------
(PID.TID 0042.0001) Creating Output Stream: dyn_Aux
(PID.TID 0042.0001) Output Frequency:     -86400.000000 ; Phase:           0.000000
(PID.TID 0042.0001)  Averaging Freq.:          0.000000 , Phase:           0.000000 , Cycle:   1
(PID.TID 0042.0001)  missing value: -9.990000000000E+02
(PID.TID 0042.0001)  Levels:    will be set later
(PID.TID 0042.0001)  Fields:    WVELMASS PhiVEL   PsiVEL
(PID.TID 0042.0001) Creating Output Stream: dynDiag
(PID.TID 0042.0001) Output Frequency:     -86400.000000 ; Phase:           0.000000
(PID.TID 0042.0001)  Averaging Freq.:          0.000000 , Phase:           0.000000 , Cycle:   1
(PID.TID 0042.0001)  missing value: -9.990000000000E+02
(PID.TID 0042.0001)  Levels:    will be set later
(PID.TID 0042.0001)  Fields:    UVELMASS VVELMASS ETAN     ETANSQ   DETADT2
(PID.TID 0042.0001) -----------------------------------------------------
(PID.TID 0042.0001)  DIAGNOSTICS_READPARMS: statistics diags. summary:
(PID.TID 0042.0001) Creating Stats. Output Stream: dynStDiag
(PID.TID 0042.0001) Output Frequency:     -86400.000000 ; Phase:           0.000000
(PID.TID 0042.0001)  Regions:   0
(PID.TID 0042.0001)  Fields:    ETAN     ETANSQ   DETADT2  UVEL     VVEL
(PID.TID 0042.0001) -----------------------------------------------------
(PID.TID 0042.0001) 
(PID.TID 0042.0001) SET_PARMS: done
(PID.TID 0042.0001) Enter INI_VERTICAL_GRID: setInterFDr=    T ; setCenterDr=    F
(PID.TID 0042.0001) // =======================================================
(PID.TID 0042.0001) // Field Model R_low (ini_masks_etc)
(PID.TID 0042.0001) // CMIN =         -2.996941894531250E+03
(PID.TID 0042.0001) // CMAX =         -2.996941894531250E+03
(PID.TID 0042.0001) // CINT =          0.000000000000000E+00
(PID.TID 0042.0001) // SYMBOLS (CMIN->CMAX): -abcdefghijklmnopqrstuvwxyz+
(PID.TID 0042.0001) //                  0.0: .
(PID.TID 0042.0001) // RANGE I (Lo:Hi:Step):(  1199:  1322:     1)
(PID.TID 0042.0001) // RANGE J (Lo:Hi:Step):(   542:   359:    -1)
(PID.TID 0042.0001) // RANGE K (Lo:Hi:Step):(   1:   1:   1)
(PID.TID 0042.0001) // =======================================================
(PID.TID 0042.0001) // =======================================================
(PID.TID 0042.0001) // END OF FIELD                                          =
(PID.TID 0042.0001) // =======================================================
(PID.TID 0042.0001) 
(PID.TID 0042.0001) // =======================================================
(PID.TID 0042.0001) // Field Model Ro_surf (ini_masks_etc)
(PID.TID 0042.0001) // CMIN =          1.000000000000000E+32
(PID.TID 0042.0001) // CMAX =         -1.000000000000000E+32
(PID.TID 0042.0001) // CINT =          0.000000000000000E+00
(PID.TID 0042.0001) // SYMBOLS (CMIN->CMAX): -abcdefghijklmnopqrstuvwxyz+
(PID.TID 0042.0001) //                  0.0: .
(PID.TID 0042.0001) // RANGE I (Lo:Hi:Step):(  1199:  1322:     1)
(PID.TID 0042.0001) // RANGE J (Lo:Hi:Step):(   542:   359:    -1)
(PID.TID 0042.0001) // RANGE K (Lo:Hi:Step):(   1:   1:   1)
(PID.TID 0042.0001) // =======================================================
(PID.TID 0042.0001) // =======================================================
(PID.TID 0042.0001) // END OF FIELD                                          =
(PID.TID 0042.0001) // =======================================================
(PID.TID 0042.0001) 
(PID.TID 0042.0001) // =======================================================
(PID.TID 0042.0001) // Field hFacC at iteration          0
(PID.TID 0042.0001) // CMIN =          9.999999995017539E-01
(PID.TID 0042.0001) // CMAX =          9.999999995017539E-01
(PID.TID 0042.0001) // CINT =          0.000000000000000E+00
(PID.TID 0042.0001) // SYMBOLS (CMIN->CMAX): -abcdefghijklmnopqrstuvwxyz+
(PID.TID 0042.0001) //                  0.0: .
(PID.TID 0042.0001) // RANGE I (Lo:Hi:Step):(  1199:  1322:     1)
(PID.TID 0042.0001) // RANGE J (Lo:Hi:Step):(   542:   359:    -1)
(PID.TID 0042.0001) // RANGE K (Lo:Hi:Step):(   1:   1:   1)
(PID.TID 0042.0001) // =======================================================
(PID.TID 0042.0001) // =======================================================
(PID.TID 0042.0001) // END OF FIELD                                          =
(PID.TID 0042.0001) // =======================================================
(PID.TID 0042.0001) 
(PID.TID 0042.0001) // =======================================================
(PID.TID 0042.0001) // Field hFacW at iteration          0
(PID.TID 0042.0001) // CMIN =          9.999999995017539E-01
(PID.TID 0042.0001) // CMAX =          9.999999995017539E-01
(PID.TID 0042.0001) // CINT =          0.000000000000000E+00
(PID.TID 0042.0001) // SYMBOLS (CMIN->CMAX): -abcdefghijklmnopqrstuvwxyz+
(PID.TID 0042.0001) //                  0.0: .
(PID.TID 0042.0001) // RANGE I (Lo:Hi:Step):(  1199:  1322:     1)
(PID.TID 0042.0001) // RANGE J (Lo:Hi:Step):(   542:   359:    -1)
(PID.TID 0042.0001) // RANGE K (Lo:Hi:Step):(   1:   1:   1)
(PID.TID 0042.0001) // =======================================================
(PID.TID 0042.0001) // =======================================================
(PID.TID 0042.0001) // END OF FIELD                                          =
(PID.TID 0042.0001) // =======================================================
(PID.TID 0042.0001) 
(PID.TID 0042.0001) // =======================================================
(PID.TID 0042.0001) // Field hFacS at iteration          0
(PID.TID 0042.0001) // CMIN =          9.999999995017539E-01
(PID.TID 0042.0001) // CMAX =          9.999999995017539E-01
(PID.TID 0042.0001) // CINT =          0.000000000000000E+00
(PID.TID 0042.0001) // SYMBOLS (CMIN->CMAX): -abcdefghijklmnopqrstuvwxyz+
(PID.TID 0042.0001) //                  0.0: .
(PID.TID 0042.0001) // RANGE I (Lo:Hi:Step):(  1199:  1322:     1)
(PID.TID 0042.0001) // RANGE J (Lo:Hi:Step):(   542:   359:    -1)
(PID.TID 0042.0001) // RANGE K (Lo:Hi:Step):(   1:   1:   1)
(PID.TID 0042.0001) // =======================================================
(PID.TID 0042.0001) // =======================================================
(PID.TID 0042.0001) // END OF FIELD                                          =
(PID.TID 0042.0001) // =======================================================
(PID.TID 0042.0001) 
(PID.TID 0042.0001) ------------------------------------------------------------
(PID.TID 0042.0001) DIAGNOSTICS_SET_LEVELS: done
(PID.TID 0042.0001)  Total Nb of available Diagnostics: ndiagt=   176
(PID.TID 0042.0001) SETDIAG: Allocate  1 x  1 Levels for Diagnostic #    48 WVELMASS
(PID.TID 0042.0001) SETDIAG: Diag #    49 PhiVEL   processed from Diag #    46 UVELMASS
(PID.TID 0042.0001) SETDIAG: Allocate  1 x  1 Levels for Diagnostic #    46 UVELMASS
(PID.TID 0042.0001) SETDIAG: Allocate  1 x  1 Levels for Mate Diag. #    47 VVELMASS
(PID.TID 0042.0001) SETDIAG: Diag #    50 PsiVEL   processed from Diag #    49 PhiVEL
(PID.TID 0042.0001) - NOTE - SETDIAG:  Diagnostic  #    49 PhiVEL   is already set
(PID.TID 0042.0001) - NOTE - SETDIAG:  Diagnostic  #    46 UVELMASS is already set
(PID.TID 0042.0001) - NOTE - SETDIAG:  Diagnostic  #    47 VVELMASS is already set
(PID.TID 0042.0001) SETDIAG: Allocate  1 x  1 Levels for Diagnostic #    23 ETAN
(PID.TID 0042.0001) SETDIAG: Allocate  1 x  1 Levels for Diagnostic #    24 ETANSQ
(PID.TID 0042.0001) SETDIAG: Allocate  1 x  1 Levels for Diagnostic #    25 DETADT2
(PID.TID 0042.0001)   space allocated for all diagnostics:       6 levels
(PID.TID 0042.0001)   set mate pointer for diag #    46  UVELMASS , Parms: UUr     MR , mate:    47
(PID.TID 0042.0001)   set mate pointer for diag #    47  VVELMASS , Parms: VVr     MR , mate:    46
(PID.TID 0042.0001)   set mate pointer for diag #    46  UVELMASS , Parms: UUr     MR , mate:    47
(PID.TID 0042.0001)   set mate pointer for diag #    47  VVELMASS , Parms: VVr     MR , mate:    46
(PID.TID 0042.0001) DIAGNOSTICS_SET_POINTERS: Set levels for Outp.Stream: dyn_Aux
(PID.TID 0042.0001)  Levels:       1.
(PID.TID 0042.0001) DIAGNOSTICS_SET_POINTERS: Set levels for Outp.Stream: dynDiag
(PID.TID 0042.0001)  Levels:       1.
(PID.TID 0042.0001) DIAGNOSTICS_SET_POINTERS: done, use       6 levels (numDiags =      20 )
(PID.TID 0042.0001) ------------------------------------------------------------
(PID.TID 0042.0001) DIAGNOSTICS_SET_CALC: setting indices iPsi0,jPsi0 where Psi == 0 :
(PID.TID 0042.0001) DIAGNOSTICS_SET_CALC: d2Min=       0.000000E+00, ijMin=      524717.000
(PID.TID 0042.0001) ------------------------------------------------------------
(PID.TID 0042.0001) DIAGSTATS_SET_REGIONS: define no region
(PID.TID 0042.0001) ------------------------------------------------------------
(PID.TID 0042.0001) SETDIAG: Allocate  1 Levels for Stats-Diag #    23 ETAN
(PID.TID 0042.0001) SETDIAG: Allocate  1 Levels for Stats-Diag #    24 ETANSQ
(PID.TID 0042.0001) SETDIAG: Allocate  1 Levels for Stats-Diag #    25 DETADT2
(PID.TID 0042.0001) SETDIAG: Allocate  1 Levels for Stats-Diag #    30 UVEL
(PID.TID 0042.0001) SETDIAG: Allocate  1 Levels for Stats-Diag #    31 VVEL
(PID.TID 0042.0001)   space allocated for all stats-diags:       5 levels
(PID.TID 0042.0001) DIAGSTATS_SET_POINTERS: done, use       5 levels (diagSt_size=      10 )
(PID.TID 0042.0001) ------------------------------------------------------------
(PID.TID 0042.0001) INI_CG2D: CG2D normalisation factor =  7.2796200630974448E-07
(PID.TID 0042.0001) 
(PID.TID 0042.0001) // =======================================================
(PID.TID 0042.0001) // Model configuration
(PID.TID 0042.0001) // =======================================================
(PID.TID 0042.0001) //
(PID.TID 0042.0001) // "Physical" paramters ( PARM01 in namelist )
(PID.TID 0042.0001) //
(PID.TID 0042.0001) buoyancyRelation = /* Type of relation to get Buoyancy */
(PID.TID 0042.0001)               'OCEANIC'
(PID.TID 0042.0001)     ;
(PID.TID 0042.0001) fluidIsAir   =  /* fluid major constituent is Air */
(PID.TID 0042.0001)                   F
(PID.TID 0042.0001)     ;
(PID.TID 0042.0001) fluidIsWater =  /* fluid major constituent is Water */
(PID.TID 0042.0001)                   T
(PID.TID 0042.0001)     ;
(PID.TID 0042.0001) usingPCoords =  /* use p (or p*) vertical coordinate */
(PID.TID 0042.0001)                   F
(PID.TID 0042.0001)     ;
(PID.TID 0042.0001) usingZCoords =  /* use z (or z*) vertical coordinate */
(PID.TID 0042.0001)                   T
(PID.TID 0042.0001)     ;
(PID.TID 0042.0001) tRef =   /* Reference temperature profile ( oC or K ) */
(PID.TID 0042.0001)                 2.000000000000000E+01       /* K =  1 */
(PID.TID 0042.0001)     ;
(PID.TID 0042.0001) sRef =   /* Reference salinity profile ( g/kg ) */
(PID.TID 0042.0001)                 3.000000000000000E+01       /* K =  1 */
(PID.TID 0042.0001)     ;
(PID.TID 0042.0001) rhoRef =   /* Density vertical profile from (Ref,sRef)( kg/m^3 ) */
(PID.TID 0042.0001)                 9.998000000000000E+02       /* K =  1 */
(PID.TID 0042.0001)     ;
(PID.TID 0042.0001) dBdrRef = /* Vertical grad. of reference buoyancy [(m/s/r)^2] */
(PID.TID 0042.0001)                 0.000000000000000E+00       /* K =  1 */
(PID.TID 0042.0001)     ;
(PID.TID 0042.0001) useStrainTensionVisc= /* Use StrainTension Form of Viscous Operator */
(PID.TID 0042.0001)                   F
(PID.TID 0042.0001)     ;
(PID.TID 0042.0001) useVariableVisc = /* Use variable horizontal viscosity */
(PID.TID 0042.0001)                   F
(PID.TID 0042.0001)     ;
(PID.TID 0042.0001) useHarmonicVisc = /* Use harmonic horizontal viscosity */
(PID.TID 0042.0001)                   F
(PID.TID 0042.0001)     ;
(PID.TID 0042.0001) useBiharmonicVisc= /* Use biharmonic horiz.  viscosity */
(PID.TID 0042.0001)                   F
(PID.TID 0042.0001)     ;
(PID.TID 0042.0001) useSmag3D = /* Use isotropic 3-D Smagorinsky viscosity */
(PID.TID 0042.0001)                   F
(PID.TID 0042.0001)     ;
(PID.TID 0042.0001) viscAh  =   /* Lateral harmonic viscosity ( m^2/s ) */
(PID.TID 0042.0001)                 0.000000000000000E+00
(PID.TID 0042.0001)     ;
(PID.TID 0042.0001) viscA4  =   /* Lateral biharmonic viscosity ( m^4/s ) */
(PID.TID 0042.0001)                 0.000000000000000E+00
(PID.TID 0042.0001)     ;
(PID.TID 0042.0001) no_slip_sides =  /* Viscous BCs: No-slip sides */
(PID.TID 0042.0001)                   F
(PID.TID 0042.0001)     ;
(PID.TID 0042.0001) sideDragFactor = /* side-drag scaling factor (non-dim) */
(PID.TID 0042.0001)                 2.000000000000000E+00
(PID.TID 0042.0001)     ;
(PID.TID 0042.0001) viscArNr = /* vertical profile of vertical viscosity ( m^2/s )*/
(PID.TID 0042.0001)                 0.000000000000000E+00       /* K =  1 */
(PID.TID 0042.0001)     ;
(PID.TID 0042.0001) no_slip_bottom =  /* Viscous BCs: No-slip bottom */
(PID.TID 0042.0001)                   F
(PID.TID 0042.0001)     ;
(PID.TID 0042.0001) bottomVisc_pCell = /* Partial-cell in bottom Visc. BC */
(PID.TID 0042.0001)                   F
(PID.TID 0042.0001)     ;
(PID.TID 0042.0001) bottomDragLinear = /* linear bottom-drag coefficient ( m/s ) */
(PID.TID 0042.0001)                 0.000000000000000E+00
(PID.TID 0042.0001)     ;
(PID.TID 0042.0001) bottomDragQuadratic = /* quadratic bottom-drag coefficient (-) */
(PID.TID 0042.0001)                 0.000000000000000E+00
(PID.TID 0042.0001)     ;
(PID.TID 0042.0001) selectBotDragQuadr = /* select quadratic bottom drag options */
(PID.TID 0042.0001)                      -1
(PID.TID 0042.0001)     ;
(PID.TID 0042.0001) diffKhT =   /* Laplacian diffusion of heat laterally ( m^2/s ) */
(PID.TID 0042.0001)                 0.000000000000000E+00
(PID.TID 0042.0001)     ;
(PID.TID 0042.0001) diffK4T =   /* Biharmonic diffusion of heat laterally ( m^4/s ) */
(PID.TID 0042.0001)                 0.000000000000000E+00
(PID.TID 0042.0001)     ;
(PID.TID 0042.0001) diffKhS =   /* Laplacian diffusion of salt laterally ( m^2/s ) */
(PID.TID 0042.0001)                 0.000000000000000E+00
(PID.TID 0042.0001)     ;
(PID.TID 0042.0001) diffK4S =   /* Biharmonic diffusion of salt laterally ( m^4/s ) */
(PID.TID 0042.0001)                 0.000000000000000E+00
(PID.TID 0042.0001)     ;
(PID.TID 0042.0001) diffKrNrT = /* vertical profile of vertical diffusion of Temp ( m^2/s )*/
(PID.TID 0042.0001)                 0.000000000000000E+00       /* K =  1 */
(PID.TID 0042.0001)     ;
(PID.TID 0042.0001) diffKrNrS = /* vertical profile of vertical diffusion of Salt ( m^2/s )*/
(PID.TID 0042.0001)                 0.000000000000000E+00       /* K =  1 */
(PID.TID 0042.0001)     ;
(PID.TID 0042.0001) diffKrBL79surf = /* Surface diffusion for Bryan and Lewis 79 ( m^2/s ) */
(PID.TID 0042.0001)                 0.000000000000000E+00
(PID.TID 0042.0001)     ;
(PID.TID 0042.0001) diffKrBL79deep = /* Deep diffusion for Bryan and Lewis 1979 ( m^2/s ) */
(PID.TID 0042.0001)                 0.000000000000000E+00
(PID.TID 0042.0001)     ;
(PID.TID 0042.0001) diffKrBL79scl = /* Depth scale for Bryan and Lewis 1979 ( m ) */
(PID.TID 0042.0001)                 2.000000000000000E+02
(PID.TID 0042.0001)     ;
(PID.TID 0042.0001) diffKrBL79Ho = /* Turning depth for Bryan and Lewis 1979 ( m ) */
(PID.TID 0042.0001)                -2.000000000000000E+03
(PID.TID 0042.0001)     ;
(PID.TID 0042.0001) ivdc_kappa = /* Implicit Vertical Diffusivity for Convection ( m^2/s) */
(PID.TID 0042.0001)                 0.000000000000000E+00
(PID.TID 0042.0001)     ;
(PID.TID 0042.0001) hMixCriteria=  /* Criteria for mixed-layer diagnostic */
(PID.TID 0042.0001)                -8.000000000000000E-01
(PID.TID 0042.0001)     ;
(PID.TID 0042.0001) dRhoSmall =  /* Parameter for mixed-layer diagnostic */
(PID.TID 0042.0001)                 1.000000000000000E-06
(PID.TID 0042.0001)     ;
(PID.TID 0042.0001) hMixSmooth=  /* Smoothing parameter for mixed-layer diagnostic */
(PID.TID 0042.0001)                 0.000000000000000E+00
(PID.TID 0042.0001)     ;
(PID.TID 0042.0001) eosType =  /* Type of Equation of State */
(PID.TID 0042.0001)               'LINEAR'
(PID.TID 0042.0001)     ;
(PID.TID 0042.0001) tAlpha = /* Linear EOS thermal expansion coefficient ( 1/oC ) */
(PID.TID 0042.0001)                 2.000000000000000E-04
(PID.TID 0042.0001)     ;
(PID.TID 0042.0001) sBeta  = /* Linear EOS haline contraction coefficient ( 1/(g/kg) ) */
(PID.TID 0042.0001)                 7.400000000000000E-04
(PID.TID 0042.0001)     ;
(PID.TID 0042.0001) rhoNil    = /* Reference density for Linear EOS ( kg/m^3 ) */
(PID.TID 0042.0001)                 9.998000000000000E+02
(PID.TID 0042.0001)     ;
(PID.TID 0042.0001) selectP_inEOS_Zc = /* select pressure to use in EOS (0,1,2,3) */
(PID.TID 0042.0001)                       0
(PID.TID 0042.0001)     0= -g*rhoConst*z ; 1= pRef (from tRef,sRef); 2= Hyd P ; 3= Hyd+NH P
(PID.TID 0042.0001)     ;
(PID.TID 0042.0001) surf_pRef = /* Surface reference pressure ( Pa ) */
(PID.TID 0042.0001)                 1.013250000000000E+05
(PID.TID 0042.0001)     ;
(PID.TID 0042.0001) HeatCapacity_Cp =  /* Specific heat capacity ( J/kg/K ) */
(PID.TID 0042.0001)                 3.994000000000000E+03
(PID.TID 0042.0001)     ;
(PID.TID 0042.0001) celsius2K = /* 0 degree Celsius converted to Kelvin ( K ) */
(PID.TID 0042.0001)                 2.731500000000000E+02
(PID.TID 0042.0001)     ;
(PID.TID 0042.0001) rhoConst  = /* Reference density (Boussinesq)  ( kg/m^3 ) */
(PID.TID 0042.0001)                 1.000000000000000E+00
(PID.TID 0042.0001)     ;
(PID.TID 0042.0001) rhoFacC = /* normalized Reference density @ cell-Center (-) */
(PID.TID 0042.0001)                 1.000000000000000E+00       /* K =  1 */
(PID.TID 0042.0001)     ;
(PID.TID 0042.0001) rhoFacF = /* normalized Reference density @ W-Interface (-) */
(PID.TID 0042.0001)     2 @  1.000000000000000E+00              /* K =  1:  2 */
(PID.TID 0042.0001)     ;
(PID.TID 0042.0001) rhoConstFresh = /* Fresh-water reference density ( kg/m^3 ) */
(PID.TID 0042.0001)                 1.000000000000000E+00
(PID.TID 0042.0001)     ;
(PID.TID 0042.0001) gravity =   /* Gravitational acceleration ( m/s^2 ) */
(PID.TID 0042.0001)                 9.810000000000000E+00
(PID.TID 0042.0001)     ;
(PID.TID 0042.0001) gBaro =   /* Barotropic gravity ( m/s^2 ) */
(PID.TID 0042.0001)                 9.810000000000000E+00
(PID.TID 0042.0001)     ;
(PID.TID 0042.0001) gravFacC = /* gravity factor (vs surf.) @ cell-Center (-) */
(PID.TID 0042.0001)                 1.000000000000000E+00       /* K =  1 */
(PID.TID 0042.0001)     ;
(PID.TID 0042.0001) gravFacF = /* gravity factor (vs surf.) @ W-Interface (-) */
(PID.TID 0042.0001)     2 @  1.000000000000000E+00              /* K =  1:  2 */
(PID.TID 0042.0001)     ;
(PID.TID 0042.0001) rotationPeriod =   /* Rotation Period ( s ) */
(PID.TID 0042.0001)                 8.616545950602833E+04
(PID.TID 0042.0001)     ;
(PID.TID 0042.0001) omega =   /* Angular velocity ( rad/s ) */
(PID.TID 0042.0001)                 7.292000000000000E-05
(PID.TID 0042.0001)     ;
(PID.TID 0042.0001) f0 =   /* Reference coriolis parameter ( 1/s ) */
(PID.TID 0042.0001)                 1.000000000000000E-04
(PID.TID 0042.0001)     ;
(PID.TID 0042.0001) beta =   /* Beta ( 1/(m.s) ) */
(PID.TID 0042.0001)                 9.999999999999999E-12
(PID.TID 0042.0001)     ;
(PID.TID 0042.0001) fPrime =   /* Second coriolis parameter ( 1/s ) */
(PID.TID 0042.0001)                 0.000000000000000E+00
(PID.TID 0042.0001)     ;
(PID.TID 0042.0001) rigidLid =   /* Rigid lid on/off flag */
(PID.TID 0042.0001)                   F
(PID.TID 0042.0001)     ;
(PID.TID 0042.0001) implicitFreeSurface =   /* Implicit free surface on/off flag */
(PID.TID 0042.0001)                   T
(PID.TID 0042.0001)     ;
(PID.TID 0042.0001) freeSurfFac =   /* Implicit free surface factor */
(PID.TID 0042.0001)                 1.000000000000000E+00
(PID.TID 0042.0001)     ;
(PID.TID 0042.0001) implicSurfPress =  /* Surface Pressure implicit factor (0-1) */
(PID.TID 0042.0001)                 1.000000000000000E+00
(PID.TID 0042.0001)     ;
(PID.TID 0042.0001) implicDiv2DFlow =  /* Barot. Flow Div. implicit factor (0-1) */
(PID.TID 0042.0001)                 1.000000000000000E+00
(PID.TID 0042.0001)     ;
(PID.TID 0042.0001) uniformLin_PhiSurf = /* use uniform Bo_surf on/off flag */
(PID.TID 0042.0001)                   T
(PID.TID 0042.0001)     ;
(PID.TID 0042.0001) uniformFreeSurfLev = /* free-surface level-index is uniform */
(PID.TID 0042.0001)                   T
(PID.TID 0042.0001)     ;
(PID.TID 0042.0001) sIceLoadFac =  /* scale factor for sIceLoad (0-1) */
(PID.TID 0042.0001)                 1.000000000000000E+00
(PID.TID 0042.0001)     ;
(PID.TID 0042.0001) hFacMin =   /* minimum partial cell factor (hFac) */
(PID.TID 0042.0001)                 1.000000000000000E-05
(PID.TID 0042.0001)     ;
(PID.TID 0042.0001) hFacMinDr = /* minimum partial cell thickness ( m) */
(PID.TID 0042.0001)                 5.000000000000000E-01
(PID.TID 0042.0001)     ;
(PID.TID 0042.0001) exactConserv = /* Update etaN from continuity Eq on/off flag */
(PID.TID 0042.0001)                   T
(PID.TID 0042.0001)     ;
(PID.TID 0042.0001) linFSConserveTr = /* Tracer correction for Lin Free Surface on/off flag */
(PID.TID 0042.0001)                   F
(PID.TID 0042.0001)     ;
(PID.TID 0042.0001) nonlinFreeSurf = /* Non-linear Free Surf. options (-1,0,1,2,3)*/
(PID.TID 0042.0001)                       0
(PID.TID 0042.0001)      -1,0= Off ; 1,2,3= On, 2=+rescale gU,gV, 3=+update cg2d solv.
(PID.TID 0042.0001)     ;
(PID.TID 0042.0001) hFacInf =   /* lower threshold for hFac (nonlinFreeSurf only)*/
(PID.TID 0042.0001)                 2.000000000000000E-01
(PID.TID 0042.0001)     ;
(PID.TID 0042.0001) hFacSup =   /* upper threshold for hFac (nonlinFreeSurf only)*/
(PID.TID 0042.0001)                 2.000000000000000E+00
(PID.TID 0042.0001)     ;
(PID.TID 0042.0001) select_rStar = /* r* Vertical coord. options (=0 r coord.; >0 uses r*)*/
(PID.TID 0042.0001)                       0
(PID.TID 0042.0001)     ;
(PID.TID 0042.0001) useRealFreshWaterFlux = /* Real Fresh Water Flux on/off flag*/
(PID.TID 0042.0001)                   F
(PID.TID 0042.0001)     ;
(PID.TID 0042.0001) temp_EvPrRn = /* Temp. of Evap/Prec/R (UNSET=use local T)(oC)*/
(PID.TID 0042.0001)                 1.234567000000000E+05
(PID.TID 0042.0001)     ;
(PID.TID 0042.0001) salt_EvPrRn = /* Salin. of Evap/Prec/R (UNSET=use local S)(g/kg)*/
(PID.TID 0042.0001)                 0.000000000000000E+00
(PID.TID 0042.0001)     ;
(PID.TID 0042.0001) selectAddFluid = /* option for mass source/sink of fluid (=0: off) */
(PID.TID 0042.0001)                       0
(PID.TID 0042.0001)     ;
(PID.TID 0042.0001) temp_addMass = /* Temp. of addMass array (UNSET=use local T)(oC)*/
(PID.TID 0042.0001)                 1.234567000000000E+05
(PID.TID 0042.0001)     ;
(PID.TID 0042.0001) salt_addMass = /* Salin. of addMass array (UNSET=use local S)(g/kg)*/
(PID.TID 0042.0001)                 0.000000000000000E+00
(PID.TID 0042.0001)     ;
(PID.TID 0042.0001) convertFW2Salt = /* convert F.W. Flux to Salt Flux (-1=use local S)(g/kg)*/
(PID.TID 0042.0001)                 3.500000000000000E+01
(PID.TID 0042.0001)     ;
(PID.TID 0042.0001) use3Dsolver = /* use 3-D pressure solver on/off flag */
(PID.TID 0042.0001)                   F
(PID.TID 0042.0001)     ;
(PID.TID 0042.0001) nonHydrostatic =  /* Non-Hydrostatic on/off flag */
(PID.TID 0042.0001)                   F
(PID.TID 0042.0001)     ;
(PID.TID 0042.0001) nh_Am2 = /* Non-Hydrostatic terms scaling factor */
(PID.TID 0042.0001)                 1.000000000000000E+00
(PID.TID 0042.0001)     ;
(PID.TID 0042.0001) implicitNHPress = /* Non-Hyd Pressure implicit factor (0-1)*/
(PID.TID 0042.0001)                 1.000000000000000E+00
(PID.TID 0042.0001)     ;
(PID.TID 0042.0001) selectNHfreeSurf = /* Non-Hyd (free-)Surface option */
(PID.TID 0042.0001)                       0
(PID.TID 0042.0001)     ;
(PID.TID 0042.0001) quasiHydrostatic = /* Quasi-Hydrostatic on/off flag */
(PID.TID 0042.0001)                   F
(PID.TID 0042.0001)     ;
(PID.TID 0042.0001) calc_wVelocity = /* vertical velocity calculation on/off flag */
(PID.TID 0042.0001)                   T
(PID.TID 0042.0001)     ;
(PID.TID 0042.0001) momStepping =  /* Momentum equation on/off flag */
(PID.TID 0042.0001)                   T
(PID.TID 0042.0001)     ;
(PID.TID 0042.0001) vectorInvariantMomentum= /* Vector-Invariant Momentum on/off */
(PID.TID 0042.0001)                   F
(PID.TID 0042.0001)     ;
(PID.TID 0042.0001) momAdvection =  /* Momentum advection on/off flag */
(PID.TID 0042.0001)                   T
(PID.TID 0042.0001)     ;
(PID.TID 0042.0001) momViscosity =  /* Momentum viscosity on/off flag */
(PID.TID 0042.0001)                   T
(PID.TID 0042.0001)     ;
(PID.TID 0042.0001) momImplVertAdv= /* Momentum implicit vert. advection on/off*/
(PID.TID 0042.0001)                   F
(PID.TID 0042.0001)     ;
(PID.TID 0042.0001) implicitViscosity = /* Implicit viscosity on/off flag */
(PID.TID 0042.0001)                   F
(PID.TID 0042.0001)     ;
(PID.TID 0042.0001) selectImplicitDrag= /* Implicit bot Drag options (0,1,2)*/
(PID.TID 0042.0001)                       0
(PID.TID 0042.0001)     0= Expl. ; 1= Impl. on provis. Vel ; 2= Fully Impl (with surf.P)
(PID.TID 0042.0001)     ;
(PID.TID 0042.0001) selectMetricTerms= /* Scheme selector for Horizontal Metric Terms */
(PID.TID 0042.0001)                       1
(PID.TID 0042.0001)    = 0 : Off (ignore Spherical/Cylindrical Metric Terms)
(PID.TID 0042.0001)    = 1 : original discretization
(PID.TID 0042.0001)    = 2 : using (Spherical) grid-spacing
(PID.TID 0042.0001)    = 3 : as 2 but gU-Metric inside Advection
(PID.TID 0042.0001)     ;
(PID.TID 0042.0001) useNHMTerms = /* Non-Hydrostatic Metric-Terms on/off */
(PID.TID 0042.0001)                   F
(PID.TID 0042.0001)     ;
(PID.TID 0042.0001) useCoriolis =  /* Coriolis on/off flag */
(PID.TID 0042.0001)                   T
(PID.TID 0042.0001)     ;
(PID.TID 0042.0001) useCDscheme =  /* CD scheme on/off flag */
(PID.TID 0042.0001)                   F
(PID.TID 0042.0001)     ;
(PID.TID 0042.0001) selectCoriMap = /* Coriolis Map options (0,1,2,3)*/
(PID.TID 0042.0001)                       2
(PID.TID 0042.0001)     0= f-Plane ; 1= Beta-Plane ; 2= Spherical ; 3= read from file
(PID.TID 0042.0001)     ;
(PID.TID 0042.0001) select3dCoriScheme= /* Scheme selector for 3-D Coriolis-Term */
(PID.TID 0042.0001)                       0
(PID.TID 0042.0001)    = 0 : Off (ignore 3-D Coriolis Terms in Omega.Cos(Lat) )
(PID.TID 0042.0001)    = 1 : original discretization ; = 2 : using averaged Transport
(PID.TID 0042.0001)    = 3 : same as 2 with hFac in gW_Cor
(PID.TID 0042.0001)     ;
(PID.TID 0042.0001) selectCoriScheme= /* Scheme selector for Coriolis-Term */
(PID.TID 0042.0001)                       0
(PID.TID 0042.0001)    = 0 : original discretization (simple averaging, no hFac)
(PID.TID 0042.0001)    = 1 : Wet-point averaging (Jamar & Ozer 1986)
(PID.TID 0042.0001)    = 2 : energy conserving scheme (no hFac weight)
(PID.TID 0042.0001)    = 3 : energy conserving scheme using Wet-point averaging
(PID.TID 0042.0001)    = 4 : hFac weighted average (Angular Mom. conserving)
(PID.TID 0042.0001)     ;
(PID.TID 0042.0001) momForcing =  /* Momentum forcing on/off flag */
(PID.TID 0042.0001)                   T
(PID.TID 0042.0001)     ;
(PID.TID 0042.0001) momTidalForcing = /* Momentum Tidal forcing on/off flag */
(PID.TID 0042.0001)                   T
(PID.TID 0042.0001)     ;
(PID.TID 0042.0001) momPressureForcing =  /* Momentum pressure term on/off flag */
(PID.TID 0042.0001)                   T
(PID.TID 0042.0001)     ;
(PID.TID 0042.0001) implicitIntGravWave= /* Implicit Internal Gravity Wave flag */
(PID.TID 0042.0001)                   F
(PID.TID 0042.0001)     ;
(PID.TID 0042.0001) staggerTimeStep =    /* Stagger time stepping on/off flag */
(PID.TID 0042.0001)                   F
(PID.TID 0042.0001)     ;
(PID.TID 0042.0001) doResetHFactors = /* reset thickness factors @ each time-step */
(PID.TID 0042.0001)                   F
(PID.TID 0042.0001)     ;
(PID.TID 0042.0001) multiDimAdvection =  /* enable/disable Multi-Dim Advection */
(PID.TID 0042.0001)                   T
(PID.TID 0042.0001)     ;
(PID.TID 0042.0001) useMultiDimAdvec =   /* Multi-Dim Advection is/is-not used */
(PID.TID 0042.0001)                   F
(PID.TID 0042.0001)     ;
(PID.TID 0042.0001) implicitDiffusion = /* Implicit Diffusion on/off flag */
(PID.TID 0042.0001)                   F
(PID.TID 0042.0001)     ;
(PID.TID 0042.0001) tempStepping =  /* Temperature equation on/off flag */
(PID.TID 0042.0001)                   F
(PID.TID 0042.0001)     ;
(PID.TID 0042.0001) tempAdvection = /* Temperature advection on/off flag */
(PID.TID 0042.0001)                   F
(PID.TID 0042.0001)     ;
(PID.TID 0042.0001) tempImplVertAdv = /* Temp. implicit vert. advection on/off */
(PID.TID 0042.0001)                   F
(PID.TID 0042.0001)     ;
(PID.TID 0042.0001) tempForcing  =  /* Temperature forcing on/off flag */
(PID.TID 0042.0001)                   F
(PID.TID 0042.0001)     ;
(PID.TID 0042.0001) selectPenetratingSW = /* short wave penetration selector */
(PID.TID 0042.0001)                       0
(PID.TID 0042.0001)     ;
(PID.TID 0042.0001) doThetaClimRelax = /* apply SST relaxation on/off flag */
(PID.TID 0042.0001)                   F
(PID.TID 0042.0001)     ;
(PID.TID 0042.0001) tempIsActiveTr = /* Temp. is a dynamically Active Tracer */
(PID.TID 0042.0001)                   F
(PID.TID 0042.0001)     ;
(PID.TID 0042.0001) saltStepping =  /* Salinity equation on/off flag */
(PID.TID 0042.0001)                   F
(PID.TID 0042.0001)     ;
(PID.TID 0042.0001) saltAdvection = /* Salinity advection on/off flag */
(PID.TID 0042.0001)                   F
(PID.TID 0042.0001)     ;
(PID.TID 0042.0001) saltImplVertAdv = /* Sali. implicit vert. advection on/off */
(PID.TID 0042.0001)                   F
(PID.TID 0042.0001)     ;
(PID.TID 0042.0001) saltForcing  =  /* Salinity forcing on/off flag */
(PID.TID 0042.0001)                   F
(PID.TID 0042.0001)     ;
(PID.TID 0042.0001) doSaltClimRelax = /* apply SSS relaxation on/off flag */
(PID.TID 0042.0001)                   F
(PID.TID 0042.0001)     ;
(PID.TID 0042.0001) saltIsActiveTr = /* Salt  is a dynamically Active Tracer */
(PID.TID 0042.0001)                   F
(PID.TID 0042.0001)     ;
(PID.TID 0042.0001)  readBinaryPrec = /* Precision used for reading binary files */
(PID.TID 0042.0001)                      32
(PID.TID 0042.0001)     ;
(PID.TID 0042.0001) writeBinaryPrec = /* Precision used for writing binary files */
(PID.TID 0042.0001)                      64
(PID.TID 0042.0001)     ;
(PID.TID 0042.0001)  rwSuffixType =   /* select format of mds file suffix */
(PID.TID 0042.0001)                       0
(PID.TID 0042.0001)    = 0 : myIter (I10.10) ;   = 1 : 100*myTime (100th sec) ;
(PID.TID 0042.0001)    = 2 : myTime (seconds);   = 3 : myTime/360 (10th of hr);
(PID.TID 0042.0001)    = 4 : myTime/3600 (hours)
(PID.TID 0042.0001)     ;
(PID.TID 0042.0001)  globalFiles = /* write "global" (=not per tile) files */
(PID.TID 0042.0001)                   F
(PID.TID 0042.0001)     ;
(PID.TID 0042.0001)  useSingleCpuIO = /* only master MPI process does I/O */
(PID.TID 0042.0001)                   T
(PID.TID 0042.0001)     ;
(PID.TID 0042.0001)  useSingleCpuInput = /* only master process reads input */
(PID.TID 0042.0001)                   T
(PID.TID 0042.0001)     ;
(PID.TID 0042.0001) /* debLev[*]  : level of debug & auxiliary message printing */
(PID.TID 0042.0001) debLevZero =  0 ; /* level of disabled aux. msg printing */
(PID.TID 0042.0001)    debLevA =  1 ; /* level of minimum  aux. msg printing */
(PID.TID 0042.0001)    debLevB =  2 ; /* level of low aux. print (report read-file opening)*/
(PID.TID 0042.0001)    debLevC =  3 ; /* level of moderate debug prt (most pkgs debug msg) */
(PID.TID 0042.0001)    debLevD =  4 ; /* level of enhanced debug prt (add DEBUG_STATS prt) */
(PID.TID 0042.0001)    debLevE =  5 ; /* level of extensive debug printing */
(PID.TID 0042.0001) debugLevel =  /* select debug printing level */
(PID.TID 0042.0001)                       2
(PID.TID 0042.0001)     ;
(PID.TID 0042.0001)  plotLevel =  /* select PLOT_FIELD printing level */
(PID.TID 0042.0001)                       2
(PID.TID 0042.0001)     ;
(PID.TID 0042.0001) //
(PID.TID 0042.0001) // Elliptic solver(s) paramters ( PARM02 in namelist )
(PID.TID 0042.0001) //
(PID.TID 0042.0001) cg2dMaxIters =   /* Upper limit on 2d con. grad iterations  */
(PID.TID 0042.0001)                    5000
(PID.TID 0042.0001)     ;
(PID.TID 0042.0001) cg2dMinItersNSA =   /* Minimum number of iterations of 2d con. grad solver  */
(PID.TID 0042.0001)                       0
(PID.TID 0042.0001)     ;
(PID.TID 0042.0001) cg2dUseMinResSol= /* use cg2d last-iter(=0) / min-resid.(=1) solution */
(PID.TID 0042.0001)                       0
(PID.TID 0042.0001)     ;
(PID.TID 0042.0001) cg2dTargetResidual =   /* 2d con. grad target residual  */
(PID.TID 0042.0001)                 1.000000000000000E-10
(PID.TID 0042.0001)     ;
(PID.TID 0042.0001) cg2dTargetResWunit =   /* CG2d target residual [W units] */
(PID.TID 0042.0001)                -1.000000000000000E+00
(PID.TID 0042.0001)     ;
(PID.TID 0042.0001) cg2dPreCondFreq =   /* Freq. for updating cg2d preconditioner */
(PID.TID 0042.0001)                       1
(PID.TID 0042.0001)     ;
(PID.TID 0042.0001) useSRCGSolver =  /* use single reduction CG solver(s) */
(PID.TID 0042.0001)                   T
(PID.TID 0042.0001)     ;
(PID.TID 0042.0001) useNSACGSolver =  /* use not-self-adjoint CG solver */
(PID.TID 0042.0001)                   F
(PID.TID 0042.0001)     ;
(PID.TID 0042.0001) printResidualFreq = /* Freq. for printing CG residual */
(PID.TID 0042.0001)                      -1
(PID.TID 0042.0001)     ;
(PID.TID 0042.0001) //
(PID.TID 0042.0001) // Time stepping paramters ( PARM03 in namelist )
(PID.TID 0042.0001) //
(PID.TID 0042.0001) deltaTMom =   /* Momentum equation timestep ( s ) */
(PID.TID 0042.0001)                 6.000000000000000E+01
(PID.TID 0042.0001)     ;
(PID.TID 0042.0001) deltaTFreeSurf = /* FreeSurface equation timestep ( s ) */
(PID.TID 0042.0001)                 6.000000000000000E+01
(PID.TID 0042.0001)     ;
(PID.TID 0042.0001) dTtracerLev =  /* Tracer equation timestep ( s ) */
(PID.TID 0042.0001)                 6.000000000000000E+01       /* K =  1 */
(PID.TID 0042.0001)     ;
(PID.TID 0042.0001) deltaTClock  =   /* Model clock timestep ( s ) */
(PID.TID 0042.0001)                 6.000000000000000E+01
(PID.TID 0042.0001)     ;
(PID.TID 0042.0001) cAdjFreq =   /* Convective adjustment interval ( s ) */
(PID.TID 0042.0001)                 0.000000000000000E+00
(PID.TID 0042.0001)     ;
(PID.TID 0042.0001) momForcingOutAB = /* =1: take Momentum Forcing out of Adams-Bash. stepping */
(PID.TID 0042.0001)                       0
(PID.TID 0042.0001)     ;
(PID.TID 0042.0001) tracForcingOutAB = /* =1: take T,S,pTr Forcing out of Adams-Bash. stepping */
(PID.TID 0042.0001)                       0
(PID.TID 0042.0001)     ;
(PID.TID 0042.0001) momDissip_In_AB = /* put Dissipation Tendency in Adams-Bash. stepping */
(PID.TID 0042.0001)                   T
(PID.TID 0042.0001)     ;
(PID.TID 0042.0001) doAB_onGtGs = /* apply AB on Tendencies (rather than on T,S)*/
(PID.TID 0042.0001)                   T
(PID.TID 0042.0001)     ;
(PID.TID 0042.0001) abEps =   /* Adams-Bashforth-2 stabilizing weight */
(PID.TID 0042.0001)                 1.000000000000000E-01
(PID.TID 0042.0001)     ;
(PID.TID 0042.0001) applyExchUV_early = /* Apply EXCH to U,V earlier in time-step */
(PID.TID 0042.0001)                   F
(PID.TID 0042.0001)     ;
(PID.TID 0042.0001) pickupStrictlyMatch= /* stop if pickup do not strictly match */
(PID.TID 0042.0001)                   T
(PID.TID 0042.0001)     ;
(PID.TID 0042.0001) nIter0   =   /* Run starting timestep number */
(PID.TID 0042.0001)                       0
(PID.TID 0042.0001)     ;
(PID.TID 0042.0001) nTimeSteps = /* Number of timesteps */
(PID.TID 0042.0001)                   17280
(PID.TID 0042.0001)     ;
(PID.TID 0042.0001) nEndIter =   /* Run ending timestep number */
(PID.TID 0042.0001)                   17280
(PID.TID 0042.0001)     ;
(PID.TID 0042.0001) baseTime =   /* Model base time ( s ) */
(PID.TID 0042.0001)                 0.000000000000000E+00
(PID.TID 0042.0001)     ;
(PID.TID 0042.0001) startTime =  /* Run start time ( s ) */
(PID.TID 0042.0001)                 0.000000000000000E+00
(PID.TID 0042.0001)     ;
(PID.TID 0042.0001) endTime  =   /* Integration ending time ( s ) */
(PID.TID 0042.0001)                 1.036800000000000E+06
(PID.TID 0042.0001)     ;
(PID.TID 0042.0001) pChkPtFreq = /* Permanent restart/pickup file interval ( s ) */
(PID.TID 0042.0001)                 0.000000000000000E+00
(PID.TID 0042.0001)     ;
(PID.TID 0042.0001) chkPtFreq  = /* Rolling restart/pickup file interval ( s ) */
(PID.TID 0042.0001)                 0.000000000000000E+00
(PID.TID 0042.0001)     ;
(PID.TID 0042.0001) pickup_write_mdsio =   /* Model IO flag. */
(PID.TID 0042.0001)                   T
(PID.TID 0042.0001)     ;
(PID.TID 0042.0001) pickup_read_mdsio =   /* Model IO flag. */
(PID.TID 0042.0001)                   T
(PID.TID 0042.0001)     ;
(PID.TID 0042.0001) writePickupAtEnd =   /* Model IO flag. */
(PID.TID 0042.0001)                   T
(PID.TID 0042.0001)     ;
(PID.TID 0042.0001) dumpFreq =   /* Model state write out interval ( s ). */
(PID.TID 0042.0001)                 8.640000000000000E+04
(PID.TID 0042.0001)     ;
(PID.TID 0042.0001) dumpInitAndLast= /* write out Initial & Last iter. model state */
(PID.TID 0042.0001)                   T
(PID.TID 0042.0001)     ;
(PID.TID 0042.0001) snapshot_mdsio =   /* Model IO flag. */
(PID.TID 0042.0001)                   T
(PID.TID 0042.0001)     ;
(PID.TID 0042.0001) monitorFreq =   /* Monitor output interval ( s ). */
(PID.TID 0042.0001)                 8.640000000000000E+04
(PID.TID 0042.0001)     ;
(PID.TID 0042.0001) monitorSelect = /* select group of variables to monitor */
(PID.TID 0042.0001)                       1
(PID.TID 0042.0001)     ;
(PID.TID 0042.0001) monitor_stdio =   /* Model IO flag. */
(PID.TID 0042.0001)                   T
(PID.TID 0042.0001)     ;
(PID.TID 0042.0001) externForcingPeriod =   /* forcing period (s) */
(PID.TID 0042.0001)                 0.000000000000000E+00
(PID.TID 0042.0001)     ;
(PID.TID 0042.0001) externForcingCycle =   /* period of the cyle (s). */
(PID.TID 0042.0001)                 0.000000000000000E+00
(PID.TID 0042.0001)     ;
(PID.TID 0042.0001) tauThetaClimRelax =   /* relaxation time scale (s) */
(PID.TID 0042.0001)                 0.000000000000000E+00
(PID.TID 0042.0001)     ;
(PID.TID 0042.0001) tauSaltClimRelax =   /* relaxation time scale (s) */
(PID.TID 0042.0001)                 0.000000000000000E+00
(PID.TID 0042.0001)     ;
(PID.TID 0042.0001) latBandClimRelax =   /* max. Lat. where relaxation */
(PID.TID 0042.0001)                 1.800000000000000E+02
(PID.TID 0042.0001)     ;
(PID.TID 0042.0001) //
(PID.TID 0042.0001) // Gridding paramters ( PARM04 in namelist )
(PID.TID 0042.0001) //
(PID.TID 0042.0001) usingCartesianGrid = /* Cartesian coordinates flag ( True/False ) */
(PID.TID 0042.0001)                   F
(PID.TID 0042.0001)     ;
(PID.TID 0042.0001) usingCylindricalGrid = /* Cylindrical coordinates flag ( True/False ) */
(PID.TID 0042.0001)                   F
(PID.TID 0042.0001)     ;
(PID.TID 0042.0001) usingSphericalPolarGrid = /* Spherical coordinates flag ( True/False ) */
(PID.TID 0042.0001)                   T
(PID.TID 0042.0001)     ;
(PID.TID 0042.0001) usingCurvilinearGrid = /* Curvilinear coordinates flag ( True/False ) */
(PID.TID 0042.0001)                   F
(PID.TID 0042.0001)     ;
(PID.TID 0042.0001) useMin4hFacEdges = /* set hFacW,S as minimum of adjacent hFacC factor */
(PID.TID 0042.0001)                   F
(PID.TID 0042.0001)     ;
(PID.TID 0042.0001) interViscAr_pCell = /* account for partial-cell in interior vert. viscosity */
(PID.TID 0042.0001)                   F
(PID.TID 0042.0001)     ;
(PID.TID 0042.0001) interDiffKr_pCell = /* account for partial-cell in interior vert. diffusion */
(PID.TID 0042.0001)                   F
(PID.TID 0042.0001)     ;
(PID.TID 0042.0001) pCellMix_select = /* option to enhance mixing near surface & bottom */
(PID.TID 0042.0001)                       0
(PID.TID 0042.0001)     ;
(PID.TID 0042.0001) selectSigmaCoord = /* Hybrid-Sigma Vert. Coordinate option */
(PID.TID 0042.0001)                       0
(PID.TID 0042.0001)     ;
(PID.TID 0042.0001) rSigmaBnd = /* r/sigma transition ( units of r ==  m ) */
(PID.TID 0042.0001)                 1.234567000000000E+05
(PID.TID 0042.0001)     ;
(PID.TID 0042.0001) rkSign =   /* index orientation relative to vertical coordinate */
(PID.TID 0042.0001)                -1.000000000000000E+00
(PID.TID 0042.0001)     ;
(PID.TID 0042.0001) gravitySign = /* gravity orientation relative to vertical coordinate */
(PID.TID 0042.0001)                -1.000000000000000E+00
(PID.TID 0042.0001)     ;
(PID.TID 0042.0001) seaLev_Z =  /* reference height of sea-level [m] */
(PID.TID 0042.0001)                 0.000000000000000E+00
(PID.TID 0042.0001)     ;
(PID.TID 0042.0001) top_Pres =  /* reference pressure at the top [Pa] */
(PID.TID 0042.0001)                 0.000000000000000E+00
(PID.TID 0042.0001)     ;
(PID.TID 0042.0001) mass2rUnit = /* convert mass per unit area [kg/m2] to r-units [m] */
(PID.TID 0042.0001)                 1.000000000000000E+00
(PID.TID 0042.0001)     ;
(PID.TID 0042.0001) rUnit2mass = /* convert r-units [m] to mass per unit area [kg/m2] */
(PID.TID 0042.0001)                 1.000000000000000E+00
(PID.TID 0042.0001)     ;
(PID.TID 0042.0001) drC =   /* C spacing ( units of r ) */
(PID.TID 0042.0001)     2 @  1.498470948012232E+03              /* K =  1:  2 */
(PID.TID 0042.0001)     ;
(PID.TID 0042.0001) drF =   /* W spacing ( units of r ) */
(PID.TID 0042.0001)                 2.996941896024465E+03       /* K =  1 */
(PID.TID 0042.0001)     ;
(PID.TID 0042.0001) delX = /* U spacing ( m - cartesian, degrees - spherical ) */
(PID.TID 0042.0001)  1440 @  2.500000000000000E-01              /* I =   1:1440 */
(PID.TID 0042.0001)     ;
(PID.TID 0042.0001) delY = /* V spacing ( m - cartesian, degrees - spherical ) */
(PID.TID 0042.0001)   720 @  2.500000000000000E-01              /* J =  1:720 */
(PID.TID 0042.0001)     ;
(PID.TID 0042.0001) xgOrigin = /* X-axis origin of West  edge (cartesian: m, lat-lon: deg) */
(PID.TID 0042.0001)                 0.000000000000000E+00
(PID.TID 0042.0001)     ;
(PID.TID 0042.0001) ygOrigin = /* Y-axis origin of South edge (cartesian: m, lat-lon: deg) */
(PID.TID 0042.0001)                -9.000000000000000E+01
(PID.TID 0042.0001)     ;
(PID.TID 0042.0001) rSphere =  /* Radius ( ignored - cartesian, m - spherical ) */
(PID.TID 0042.0001)                 6.371000000000000E+06
(PID.TID 0042.0001)     ;
(PID.TID 0042.0001) deepAtmosphere = /* Deep/Shallow Atmosphere flag (True/False) */
(PID.TID 0042.0001)                   F
(PID.TID 0042.0001)     ;
(PID.TID 0042.0001) xC =  /* xC(:,1,:,1) : P-point X coord ( deg. or m if cartesian) */
(PID.TID 0042.0001)                 3.001250000000000E+02,      /* I =  1 */
(PID.TID 0042.0001)                 3.003750000000000E+02,      /* I =  2 */
(PID.TID 0042.0001)                 3.006250000000000E+02,      /* I =  3 */
(PID.TID 0042.0001)      . . .
(PID.TID 0042.0001)                 3.068750000000000E+02,      /* I = 28 */
(PID.TID 0042.0001)                 3.071250000000000E+02,      /* I = 29 */
(PID.TID 0042.0001)                 3.073750000000000E+02,      /* I = 30 */
(PID.TID 0042.0001)                 3.076250000000000E+02,      /* I = 31 */
(PID.TID 0042.0001)                 3.078750000000000E+02,      /* I = 32 */
(PID.TID 0042.0001)                 3.081250000000000E+02,      /* I = 33 */
(PID.TID 0042.0001)      . . .
(PID.TID 0042.0001)                 3.143750000000000E+02,      /* I = 58 */
(PID.TID 0042.0001)                 3.146250000000000E+02,      /* I = 59 */
(PID.TID 0042.0001)                 3.148750000000000E+02,      /* I = 60 */
(PID.TID 0042.0001)                 3.151250000000000E+02,      /* I = 61 */
(PID.TID 0042.0001)                 3.153750000000000E+02,      /* I = 62 */
(PID.TID 0042.0001)                 3.156250000000000E+02,      /* I = 63 */
(PID.TID 0042.0001)      . . .
(PID.TID 0042.0001)                 3.218750000000000E+02,      /* I = 88 */
(PID.TID 0042.0001)                 3.221250000000000E+02,      /* I = 89 */
(PID.TID 0042.0001)                 3.223750000000000E+02,      /* I = 90 */
(PID.TID 0042.0001)                 3.226250000000000E+02,      /* I = 91 */
(PID.TID 0042.0001)                 3.228750000000000E+02,      /* I = 92 */
(PID.TID 0042.0001)                 3.231250000000000E+02,      /* I = 93 */
(PID.TID 0042.0001)      . . .
(PID.TID 0042.0001)                 3.293750000000000E+02,      /* I =118 */
(PID.TID 0042.0001)                 3.296250000000000E+02,      /* I =119 */
(PID.TID 0042.0001)                 3.298750000000000E+02       /* I =120 */
(PID.TID 0042.0001)     ;
(PID.TID 0042.0001) yC =  /* yC(1,:,1,:) : P-point Y coord ( deg. or m if cartesian) */
(PID.TID 0042.0001)                 1.250000000000000E-01,      /* J =  1 */
(PID.TID 0042.0001)                 3.750000000000000E-01,      /* J =  2 */
(PID.TID 0042.0001)                 6.250000000000000E-01,      /* J =  3 */
(PID.TID 0042.0001)      . . .
(PID.TID 0042.0001)                 1.062500000000000E+01,      /* J = 43 */
(PID.TID 0042.0001)                 1.087500000000000E+01,      /* J = 44 */
(PID.TID 0042.0001)                 1.112500000000000E+01,      /* J = 45 */
(PID.TID 0042.0001)                 1.137500000000000E+01,      /* J = 46 */
(PID.TID 0042.0001)                 1.162500000000000E+01,      /* J = 47 */
(PID.TID 0042.0001)                 1.187500000000000E+01,      /* J = 48 */
(PID.TID 0042.0001)      . . .
(PID.TID 0042.0001)                 2.187500000000000E+01,      /* J = 88 */
(PID.TID 0042.0001)                 2.212500000000000E+01,      /* J = 89 */
(PID.TID 0042.0001)                 2.237500000000000E+01,      /* J = 90 */
(PID.TID 0042.0001)                 2.262500000000000E+01,      /* J = 91 */
(PID.TID 0042.0001)                 2.287500000000000E+01,      /* J = 92 */
(PID.TID 0042.0001)                 2.312500000000000E+01,      /* J = 93 */
(PID.TID 0042.0001)      . . .
(PID.TID 0042.0001)                 3.312500000000000E+01,      /* J =133 */
(PID.TID 0042.0001)                 3.337500000000000E+01,      /* J =134 */
(PID.TID 0042.0001)                 3.362500000000000E+01,      /* J =135 */
(PID.TID 0042.0001)                 3.387500000000000E+01,      /* J =136 */
(PID.TID 0042.0001)                 3.412500000000000E+01,      /* J =137 */
(PID.TID 0042.0001)                 3.437500000000000E+01,      /* J =138 */
(PID.TID 0042.0001)      . . .
(PID.TID 0042.0001)                 4.437500000000000E+01,      /* J =178 */
(PID.TID 0042.0001)                 4.462500000000000E+01,      /* J =179 */
(PID.TID 0042.0001)                 4.487500000000000E+01       /* J =180 */
(PID.TID 0042.0001)     ;
(PID.TID 0042.0001) rcoord = /* P-point R coordinate (  units of r ) */
(PID.TID 0042.0001)                -1.498470948012232E+03       /* K =  1 */
(PID.TID 0042.0001)     ;
(PID.TID 0042.0001) rF =   /* W-Interf. R coordinate (  units of r ) */
(PID.TID 0042.0001)                 0.000000000000000E+00,      /* K =  1 */
(PID.TID 0042.0001)                -2.996941896024465E+03       /* K =  2 */
(PID.TID 0042.0001)     ;
(PID.TID 0042.0001) deepFacC = /* deep-model grid factor @ cell-Center (-) */
(PID.TID 0042.0001)                 1.000000000000000E+00       /* K =  1 */
(PID.TID 0042.0001)     ;
(PID.TID 0042.0001) deepFacF = /* deep-model grid factor @ W-Interface (-) */
(PID.TID 0042.0001)     2 @  1.000000000000000E+00              /* K =  1:  2 */
(PID.TID 0042.0001)     ;
(PID.TID 0042.0001) rotateGrid = /* use rotated grid ( True/False ) */
(PID.TID 0042.0001)                   F
(PID.TID 0042.0001)     ;
(PID.TID 0042.0001) phiEuler = /* Euler angle, rotation about original z-coordinate [rad] */
(PID.TID 0042.0001)                 0.000000000000000E+00
(PID.TID 0042.0001)     ;
(PID.TID 0042.0001) thetaEuler = /* Euler angle, rotation about new x-coordinate [rad] */
(PID.TID 0042.0001)                 0.000000000000000E+00
(PID.TID 0042.0001)     ;
(PID.TID 0042.0001) psiEuler = /* Euler angle, rotation about new z-coordinate [rad] */
(PID.TID 0042.0001)                 0.000000000000000E+00
(PID.TID 0042.0001)     ;
(PID.TID 0042.0001) dxF =  /* dxF(:,1,:,1) ( units: m ) */
(PID.TID 0042.0001)   120 @  2.779866550508849E+04              /* I =  1:120 */
(PID.TID 0042.0001)     ;
(PID.TID 0042.0001) dxF =  /* dxF(1,:,1,:) ( units: m ) */
(PID.TID 0042.0001)                 2.779866550508849E+04,      /* J =  1 */
(PID.TID 0042.0001)                 2.779813625856818E+04,      /* J =  2 */
(PID.TID 0042.0001)                 2.779707777560367E+04,      /* J =  3 */
(PID.TID 0042.0001)      . . .
(PID.TID 0042.0001)                 2.732212217511539E+04,      /* J = 43 */
(PID.TID 0042.0001)                 2.729949778830980E+04,      /* J = 44 */
(PID.TID 0042.0001)                 2.727635365841769E+04,      /* J = 45 */
(PID.TID 0042.0001)                 2.725269022606995E+04,      /* J = 46 */
(PID.TID 0042.0001)                 2.722850794178421E+04,      /* J = 47 */
(PID.TID 0042.0001)                 2.720380726595631E+04,      /* J = 48 */
(PID.TID 0042.0001)      . . .
(PID.TID 0042.0001)                 2.579719274186006E+04,      /* J = 88 */
(PID.TID 0042.0001)                 2.575175492778140E+04,      /* J = 89 */
(PID.TID 0042.0001)                 2.570582683740927E+04,      /* J = 90 */
(PID.TID 0042.0001)                 2.565940934514830E+04,      /* J = 91 */
(PID.TID 0042.0001)                 2.561250333472064E+04,      /* J = 92 */
(PID.TID 0042.0001)                 2.556510969914913E+04,      /* J = 93 */
(PID.TID 0042.0001)      . . .
(PID.TID 0042.0001)                 2.328089165876742E+04,      /* J =133 */
(PID.TID 0042.0001)                 2.321438656712891E+04,      /* J =134 */
(PID.TID 0042.0001)                 2.314743950703298E+04,      /* J =135 */
(PID.TID 0042.0001)                 2.308005175305515E+04,      /* J =136 */
(PID.TID 0042.0001)                 2.301222458816111E+04,      /* J =137 */
(PID.TID 0042.0001)                 2.294395930368234E+04,      /* J =138 */
(PID.TID 0042.0001)      . . .
(PID.TID 0042.0001)                 1.986991896530281E+04,      /* J =178 */
(PID.TID 0042.0001)                 1.978490234947963E+04,      /* J =179 */
(PID.TID 0042.0001)                 1.969950905763504E+04       /* J =180 */
(PID.TID 0042.0001)     ;
(PID.TID 0042.0001) dyF =  /* dyF(:,1,:,1) ( units: m ) */
(PID.TID 0042.0001)   120 @  2.779873166113969E+04              /* I =  1:120 */
(PID.TID 0042.0001)     ;
(PID.TID 0042.0001) dyF =  /* dyF(1,:,1,:) ( units: m ) */
(PID.TID 0042.0001)   180 @  2.779873166113969E+04              /* J =  1:180 */
(PID.TID 0042.0001)     ;
(PID.TID 0042.0001) dxG =  /* dxG(:,1,:,1) ( units: m ) */
(PID.TID 0042.0001)   120 @  2.779873166113969E+04              /* I =  1:120 */
(PID.TID 0042.0001)     ;
(PID.TID 0042.0001) dxG =  /* dxG(1,:,1,:) ( units: m ) */
(PID.TID 0042.0001)                 2.779873166113969E+04,      /* J =  1 */
(PID.TID 0042.0001)                 2.779846703724977E+04,      /* J =  2 */
(PID.TID 0042.0001)                 2.779767317061811E+04,      /* J =  3 */
(PID.TID 0042.0001)      . . .
(PID.TID 0042.0001)                 2.733323932986908E+04,      /* J = 43 */
(PID.TID 0042.0001)                 2.731087497675140E+04,      /* J = 44 */
(PID.TID 0042.0001)                 2.728799066394195E+04,      /* J = 45 */
(PID.TID 0042.0001)                 2.726458682712504E+04,      /* J = 46 */
(PID.TID 0042.0001)                 2.724066391187601E+04,      /* J = 47 */
(PID.TID 0042.0001)                 2.721622237365266E+04,      /* J = 48 */
(PID.TID 0042.0001)      . . .
(PID.TID 0042.0001)                 2.581972752458975E+04,      /* J = 88 */
(PID.TID 0042.0001)                 2.577453517364329E+04,      /* J = 89 */
(PID.TID 0042.0001)                 2.572885211270030E+04,      /* J = 90 */
(PID.TID 0042.0001)                 2.568267921150044E+04,      /* J = 91 */
(PID.TID 0042.0001)                 2.563601734910917E+04,      /* J = 92 */
(PID.TID 0042.0001)                 2.558886741390110E+04,      /* J = 93 */
(PID.TID 0042.0001)      . . .
(PID.TID 0042.0001)                 2.331397807041046E+04,      /* J =133 */
(PID.TID 0042.0001)                 2.324769443833791E+04,      /* J =134 */
(PID.TID 0042.0001)                 2.318096820367408E+04,      /* J =135 */
(PID.TID 0042.0001)                 2.311380063679030E+04,      /* J =136 */
(PID.TID 0042.0001)                 2.304619301646022E+04,      /* J =137 */
(PID.TID 0042.0001)                 2.297814662983549E+04,      /* J =138 */
(PID.TID 0042.0001)      . . .
(PID.TID 0042.0001)                 1.991228551361482E+04,      /* J =178 */
(PID.TID 0042.0001)                 1.982745784322445E+04,      /* J =179 */
(PID.TID 0042.0001)                 1.974225268661740E+04       /* J =180 */
(PID.TID 0042.0001)     ;
(PID.TID 0042.0001) dyG =  /* dyG(:,1,:,1) ( units: m ) */
(PID.TID 0042.0001)   120 @  2.779873166113969E+04              /* I =  1:120 */
(PID.TID 0042.0001)     ;
(PID.TID 0042.0001) dyG =  /* dyG(1,:,1,:) ( units: m ) */
(PID.TID 0042.0001)   180 @  2.779873166113969E+04              /* J =  1:180 */
(PID.TID 0042.0001)     ;
(PID.TID 0042.0001) dxC =  /* dxC(:,1,:,1) ( units: m ) */
(PID.TID 0042.0001)   120 @  2.779866550508849E+04              /* I =  1:120 */
(PID.TID 0042.0001)     ;
(PID.TID 0042.0001) dxC =  /* dxC(1,:,1,:) ( units: m ) */
(PID.TID 0042.0001)                 2.779866550508849E+04,      /* J =  1 */
(PID.TID 0042.0001)                 2.779813625856818E+04,      /* J =  2 */
(PID.TID 0042.0001)                 2.779707777560367E+04,      /* J =  3 */
(PID.TID 0042.0001)      . . .
(PID.TID 0042.0001)                 2.732212217511539E+04,      /* J = 43 */
(PID.TID 0042.0001)                 2.729949778830980E+04,      /* J = 44 */
(PID.TID 0042.0001)                 2.727635365841769E+04,      /* J = 45 */
(PID.TID 0042.0001)                 2.725269022606995E+04,      /* J = 46 */
(PID.TID 0042.0001)                 2.722850794178421E+04,      /* J = 47 */
(PID.TID 0042.0001)                 2.720380726595631E+04,      /* J = 48 */
(PID.TID 0042.0001)      . . .
(PID.TID 0042.0001)                 2.579719274186006E+04,      /* J = 88 */
(PID.TID 0042.0001)                 2.575175492778140E+04,      /* J = 89 */
(PID.TID 0042.0001)                 2.570582683740927E+04,      /* J = 90 */
(PID.TID 0042.0001)                 2.565940934514830E+04,      /* J = 91 */
(PID.TID 0042.0001)                 2.561250333472064E+04,      /* J = 92 */
(PID.TID 0042.0001)                 2.556510969914913E+04,      /* J = 93 */
(PID.TID 0042.0001)      . . .
(PID.TID 0042.0001)                 2.328089165876742E+04,      /* J =133 */
(PID.TID 0042.0001)                 2.321438656712891E+04,      /* J =134 */
(PID.TID 0042.0001)                 2.314743950703298E+04,      /* J =135 */
(PID.TID 0042.0001)                 2.308005175305515E+04,      /* J =136 */
(PID.TID 0042.0001)                 2.301222458816111E+04,      /* J =137 */
(PID.TID 0042.0001)                 2.294395930368234E+04,      /* J =138 */
(PID.TID 0042.0001)      . . .
(PID.TID 0042.0001)                 1.986991896530281E+04,      /* J =178 */
(PID.TID 0042.0001)                 1.978490234947963E+04,      /* J =179 */
(PID.TID 0042.0001)                 1.969950905763504E+04       /* J =180 */
(PID.TID 0042.0001)     ;
(PID.TID 0042.0001) dyC =  /* dyC(:,1,:,1) ( units: m ) */
(PID.TID 0042.0001)   120 @  2.779873166113969E+04              /* I =  1:120 */
(PID.TID 0042.0001)     ;
(PID.TID 0042.0001) dyC =  /* dyC(1,:,1,:) ( units: m ) */
(PID.TID 0042.0001)   180 @  2.779873166113969E+04              /* J =  1:180 */
(PID.TID 0042.0001)     ;
(PID.TID 0042.0001) dxV =  /* dxV(:,1,:,1) ( units: m ) */
(PID.TID 0042.0001)   120 @  2.779873166113969E+04              /* I =  1:120 */
(PID.TID 0042.0001)     ;
(PID.TID 0042.0001) dxV =  /* dxV(1,:,1,:) ( units: m ) */
(PID.TID 0042.0001)                 2.779873166113969E+04,      /* J =  1 */
(PID.TID 0042.0001)                 2.779846703724977E+04,      /* J =  2 */
(PID.TID 0042.0001)                 2.779767317061811E+04,      /* J =  3 */
(PID.TID 0042.0001)      . . .
(PID.TID 0042.0001)                 2.733323932986908E+04,      /* J = 43 */
(PID.TID 0042.0001)                 2.731087497675140E+04,      /* J = 44 */
(PID.TID 0042.0001)                 2.728799066394195E+04,      /* J = 45 */
(PID.TID 0042.0001)                 2.726458682712504E+04,      /* J = 46 */
(PID.TID 0042.0001)                 2.724066391187601E+04,      /* J = 47 */
(PID.TID 0042.0001)                 2.721622237365266E+04,      /* J = 48 */
(PID.TID 0042.0001)      . . .
(PID.TID 0042.0001)                 2.581972752458975E+04,      /* J = 88 */
(PID.TID 0042.0001)                 2.577453517364329E+04,      /* J = 89 */
(PID.TID 0042.0001)                 2.572885211270030E+04,      /* J = 90 */
(PID.TID 0042.0001)                 2.568267921150044E+04,      /* J = 91 */
(PID.TID 0042.0001)                 2.563601734910917E+04,      /* J = 92 */
(PID.TID 0042.0001)                 2.558886741390110E+04,      /* J = 93 */
(PID.TID 0042.0001)      . . .
(PID.TID 0042.0001)                 2.331397807041046E+04,      /* J =133 */
(PID.TID 0042.0001)                 2.324769443833791E+04,      /* J =134 */
(PID.TID 0042.0001)                 2.318096820367408E+04,      /* J =135 */
(PID.TID 0042.0001)                 2.311380063679030E+04,      /* J =136 */
(PID.TID 0042.0001)                 2.304619301646022E+04,      /* J =137 */
(PID.TID 0042.0001)                 2.297814662983549E+04,      /* J =138 */
(PID.TID 0042.0001)      . . .
(PID.TID 0042.0001)                 1.991228551361482E+04,      /* J =178 */
(PID.TID 0042.0001)                 1.982745784322445E+04,      /* J =179 */
(PID.TID 0042.0001)                 1.974225268661740E+04       /* J =180 */
(PID.TID 0042.0001)     ;
(PID.TID 0042.0001) dyU =  /* dyU(:,1,:,1) ( units: m ) */
(PID.TID 0042.0001)   120 @  2.779873166113969E+04              /* I =  1:120 */
(PID.TID 0042.0001)     ;
(PID.TID 0042.0001) dyU =  /* dyU(1,:,1,:) ( units: m ) */
(PID.TID 0042.0001)   180 @  2.779873166113969E+04              /* J =  1:180 */
(PID.TID 0042.0001)     ;
(PID.TID 0042.0001) rA  =  /* rA (:,1,:,1) ( units: m^2 ) */
(PID.TID 0042.0001)   120 @  7.727670298969916E+08              /* I =  1:120 */
(PID.TID 0042.0001)     ;
(PID.TID 0042.0001) rA  =  /* rA (1,:,1,:) ( units: m^2 ) */
(PID.TID 0042.0001)                 7.727670298969916E+08,      /* J =  1 */
(PID.TID 0042.0001)                 7.727523175266620E+08,      /* J =  2 */
(PID.TID 0042.0001)                 7.727228930661055E+08,      /* J =  3 */
(PID.TID 0042.0001)      . . .
(PID.TID 0042.0001)                 7.595197402509034E+08,      /* J = 43 */
(PID.TID 0042.0001)                 7.588908114920131E+08,      /* J = 44 */
(PID.TID 0042.0001)                 7.582474345459853E+08,      /* J = 45 */
(PID.TID 0042.0001)                 7.575896216618026E+08,      /* J = 46 */
(PID.TID 0042.0001)                 7.569173853632531E+08,      /* J = 47 */
(PID.TID 0042.0001)                 7.562307384487636E+08,      /* J = 48 */
(PID.TID 0042.0001)      . . .
(PID.TID 0042.0001)                 7.171286697614415E+08,      /* J = 88 */
(PID.TID 0042.0001)                 7.158655571625930E+08,      /* J = 89 */
(PID.TID 0042.0001)                 7.145888155154512E+08,      /* J = 90 */
(PID.TID 0042.0001)                 7.132984691272924E+08,      /* J = 91 */
(PID.TID 0042.0001)                 7.119945425644981E+08,      /* J = 92 */
(PID.TID 0042.0001)                 7.106770606519156E+08,      /* J = 93 */
(PID.TID 0042.0001)      . . .
(PID.TID 0042.0001)                 6.471787466634301E+08,      /* J =133 */
(PID.TID 0042.0001)                 6.453299909334562E+08,      /* J =134 */
(PID.TID 0042.0001)                 6.434689490506577E+08,      /* J =135 */
(PID.TID 0042.0001)                 6.415956564466423E+08,      /* J =136 */
(PID.TID 0042.0001)                 6.397101487860986E+08,      /* J =137 */
(PID.TID 0042.0001)                 6.378124619665216E+08,      /* J =138 */
(PID.TID 0042.0001)      . . .
(PID.TID 0042.0001)                 5.523581072731705E+08,      /* J =178 */
(PID.TID 0042.0001)                 5.499947550579650E+08,      /* J =179 */
(PID.TID 0042.0001)                 5.476209317353954E+08       /* J =180 */
(PID.TID 0042.0001)     ;
(PID.TID 0042.0001) rAw =  /* rAw(:,1,:,1) ( units: m^2 ) */
(PID.TID 0042.0001)   120 @  7.727670298969916E+08              /* I =  1:120 */
(PID.TID 0042.0001)     ;
(PID.TID 0042.0001) rAw =  /* rAw(1,:,1,:) ( units: m^2 ) */
(PID.TID 0042.0001)                 7.727670298969916E+08,      /* J =  1 */
(PID.TID 0042.0001)                 7.727523175266620E+08,      /* J =  2 */
(PID.TID 0042.0001)                 7.727228930661055E+08,      /* J =  3 */
(PID.TID 0042.0001)      . . .
(PID.TID 0042.0001)                 7.595197402509034E+08,      /* J = 43 */
(PID.TID 0042.0001)                 7.588908114920131E+08,      /* J = 44 */
(PID.TID 0042.0001)                 7.582474345459853E+08,      /* J = 45 */
(PID.TID 0042.0001)                 7.575896216618026E+08,      /* J = 46 */
(PID.TID 0042.0001)                 7.569173853632531E+08,      /* J = 47 */
(PID.TID 0042.0001)                 7.562307384487636E+08,      /* J = 48 */
(PID.TID 0042.0001)      . . .
(PID.TID 0042.0001)                 7.171286697614415E+08,      /* J = 88 */
(PID.TID 0042.0001)                 7.158655571625930E+08,      /* J = 89 */
[...]
 cg2d: Sum(rhs),rhsMax =                    NaN                   NaN
 cg2d: Sum(rhs),rhsMax =                    NaN                   NaN
 cg2d: Sum(rhs),rhsMax =                    NaN                   NaN
 cg2d: Sum(rhs),rhsMax =                    NaN                   NaN
 cg2d: Sum(rhs),rhsMax =                    NaN                   NaN
 cg2d: Sum(rhs),rhsMax =                    NaN                   NaN
 cg2d: Sum(rhs),rhsMax =                    NaN                   NaN
 cg2d: Sum(rhs),rhsMax =                    NaN                   NaN
 cg2d: Sum(rhs),rhsMax =                    NaN                   NaN
 cg2d: Sum(rhs),rhsMax =                    NaN                   NaN
 cg2d: Sum(rhs),rhsMax =                    NaN                   NaN
 cg2d: Sum(rhs),rhsMax =                    NaN                   NaN
 cg2d: Sum(rhs),rhsMax =                    NaN                   NaN
 cg2d: Sum(rhs),rhsMax =                    NaN                   NaN
 cg2d: Sum(rhs),rhsMax =                    NaN                   NaN
 cg2d: Sum(rhs),rhsMax =                    NaN                   NaN
 cg2d: Sum(rhs),rhsMax =                    NaN                   NaN
 cg2d: Sum(rhs),rhsMax =                    NaN                   NaN
 cg2d: Sum(rhs),rhsMax =                    NaN                   NaN
 cg2d: Sum(rhs),rhsMax =                    NaN                   NaN
 cg2d: Sum(rhs),rhsMax =                    NaN                   NaN
 cg2d: Sum(rhs),rhsMax =                    NaN                   NaN
 cg2d: Sum(rhs),rhsMax =                    NaN                   NaN
 cg2d: Sum(rhs),rhsMax =                    NaN                   NaN
 cg2d: Sum(rhs),rhsMax =                    NaN                   NaN
 cg2d: Sum(rhs),rhsMax =                    NaN                   NaN
 cg2d: Sum(rhs),rhsMax =                    NaN                   NaN
 cg2d: Sum(rhs),rhsMax =                    NaN                   NaN
 cg2d: Sum(rhs),rhsMax =                    NaN                   NaN
 cg2d: Sum(rhs),rhsMax =                    NaN                   NaN
 cg2d: Sum(rhs),rhsMax =                    NaN                   NaN
 cg2d: Sum(rhs),rhsMax =                    NaN                   NaN
 cg2d: Sum(rhs),rhsMax =                    NaN                   NaN
 cg2d: Sum(rhs),rhsMax =                    NaN                   NaN
 cg2d: Sum(rhs),rhsMax =                    NaN                   NaN
 cg2d: Sum(rhs),rhsMax =                    NaN                   NaN
 cg2d: Sum(rhs),rhsMax =                    NaN                   NaN
 cg2d: Sum(rhs),rhsMax =                    NaN                   NaN
 cg2d: Sum(rhs),rhsMax =                    NaN                   NaN
 cg2d: Sum(rhs),rhsMax =                    NaN                   NaN
 cg2d: Sum(rhs),rhsMax =                    NaN                   NaN
 cg2d: Sum(rhs),rhsMax =                    NaN                   NaN
 cg2d: Sum(rhs),rhsMax =                    NaN                   NaN
 cg2d: Sum(rhs),rhsMax =                    NaN                   NaN
 cg2d: Sum(rhs),rhsMax =                    NaN                   NaN
 cg2d: Sum(rhs),rhsMax =                    NaN                   NaN
 cg2d: Sum(rhs),rhsMax =                    NaN                   NaN
 cg2d: Sum(rhs),rhsMax =                    NaN                   NaN
 cg2d: Sum(rhs),rhsMax =                    NaN                   NaN
 cg2d: Sum(rhs),rhsMax =                    NaN                   NaN
 cg2d: Sum(rhs),rhsMax =                    NaN                   NaN
 cg2d: Sum(rhs),rhsMax =                    NaN                   NaN
 cg2d: Sum(rhs),rhsMax =                    NaN                   NaN
 cg2d: Sum(rhs),rhsMax =                    NaN                   NaN
 cg2d: Sum(rhs),rhsMax =                    NaN                   NaN
 cg2d: Sum(rhs),rhsMax =                    NaN                   NaN
 cg2d: Sum(rhs),rhsMax =                    NaN                   NaN
 cg2d: Sum(rhs),rhsMax =                    NaN                   NaN
 cg2d: Sum(rhs),rhsMax =                    NaN                   NaN
 cg2d: Sum(rhs),rhsMax =                    NaN                   NaN
 cg2d: Sum(rhs),rhsMax =                    NaN                   NaN
 cg2d: Sum(rhs),rhsMax =                    NaN                   NaN
 cg2d: Sum(rhs),rhsMax =                    NaN                   NaN
 cg2d: Sum(rhs),rhsMax =                    NaN                   NaN
 cg2d: Sum(rhs),rhsMax =                    NaN                   NaN
 cg2d: Sum(rhs),rhsMax =                    NaN                   NaN
 cg2d: Sum(rhs),rhsMax =                    NaN                   NaN
 cg2d: Sum(rhs),rhsMax =                    NaN                   NaN
 cg2d: Sum(rhs),rhsMax =                    NaN                   NaN
 cg2d: Sum(rhs),rhsMax =                    NaN                   NaN
 cg2d: Sum(rhs),rhsMax =                    NaN                   NaN
 cg2d: Sum(rhs),rhsMax =                    NaN                   NaN
 cg2d: Sum(rhs),rhsMax =                    NaN                   NaN
 cg2d: Sum(rhs),rhsMax =                    NaN                   NaN
 cg2d: Sum(rhs),rhsMax =                    NaN                   NaN
 cg2d: Sum(rhs),rhsMax =                    NaN                   NaN
 cg2d: Sum(rhs),rhsMax =                    NaN                   NaN
 cg2d: Sum(rhs),rhsMax =                    NaN                   NaN
 cg2d: Sum(rhs),rhsMax =                    NaN                   NaN
 cg2d: Sum(rhs),rhsMax =                    NaN                   NaN
 cg2d: Sum(rhs),rhsMax =                    NaN                   NaN
 cg2d: Sum(rhs),rhsMax =                    NaN                   NaN
 cg2d: Sum(rhs),rhsMax =                    NaN                   NaN
 cg2d: Sum(rhs),rhsMax =                    NaN                   NaN
 cg2d: Sum(rhs),rhsMax =                    NaN                   NaN
 cg2d: Sum(rhs),rhsMax =                    NaN                   NaN
 cg2d: Sum(rhs),rhsMax =                    NaN                   NaN
 cg2d: Sum(rhs),rhsMax =                    NaN                   NaN
 cg2d: Sum(rhs),rhsMax =                    NaN                   NaN
 cg2d: Sum(rhs),rhsMax =                    NaN                   NaN
 cg2d: Sum(rhs),rhsMax =                    NaN                   NaN
 cg2d: Sum(rhs),rhsMax =                    NaN                   NaN
 cg2d: Sum(rhs),rhsMax =                    NaN                   NaN
 cg2d: Sum(rhs),rhsMax =                    NaN                   NaN
 cg2d: Sum(rhs),rhsMax =                    NaN                   NaN
 cg2d: Sum(rhs),rhsMax =                    NaN                   NaN
 cg2d: Sum(rhs),rhsMax =                    NaN                   NaN
 cg2d: Sum(rhs),rhsMax =                    NaN                   NaN
 cg2d: Sum(rhs),rhsMax =                    NaN                   NaN
 cg2d: Sum(rhs),rhsMax =                    NaN                   NaN
 cg2d: Sum(rhs),rhsMax =                    NaN                   NaN
 cg2d: Sum(rhs),rhsMax =                    NaN                   NaN
 cg2d: Sum(rhs),rhsMax =                    NaN                   NaN
 cg2d: Sum(rhs),rhsMax =                    NaN                   NaN
 cg2d: Sum(rhs),rhsMax =                    NaN                   NaN
 cg2d: Sum(rhs),rhsMax =                    NaN                   NaN
 cg2d: Sum(rhs),rhsMax =                    NaN                   NaN
 cg2d: Sum(rhs),rhsMax =                    NaN                   NaN
 cg2d: Sum(rhs),rhsMax =                    NaN                   NaN
 cg2d: Sum(rhs),rhsMax =                    NaN                   NaN
 cg2d: Sum(rhs),rhsMax =                    NaN                   NaN
 cg2d: Sum(rhs),rhsMax =                    NaN                   NaN
 cg2d: Sum(rhs),rhsMax =                    NaN                   NaN
 cg2d: Sum(rhs),rhsMax =                    NaN                   NaN
 cg2d: Sum(rhs),rhsMax =                    NaN                   NaN
 cg2d: Sum(rhs),rhsMax =                    NaN                   NaN
 cg2d: Sum(rhs),rhsMax =                    NaN                   NaN
 cg2d: Sum(rhs),rhsMax =                    NaN                   NaN
 cg2d: Sum(rhs),rhsMax =                    NaN                   NaN
 cg2d: Sum(rhs),rhsMax =                    NaN                   NaN
 cg2d: Sum(rhs),rhsMax =                    NaN                   NaN
 cg2d: Sum(rhs),rhsMax =                    NaN                   NaN
 cg2d: Sum(rhs),rhsMax =                    NaN                   NaN
 cg2d: Sum(rhs),rhsMax =                    NaN                   NaN
 cg2d: Sum(rhs),rhsMax =                    NaN                   NaN
 cg2d: Sum(rhs),rhsMax =                    NaN                   NaN
 cg2d: Sum(rhs),rhsMax =                    NaN                   NaN
 cg2d: Sum(rhs),rhsMax =                    NaN                   NaN
 cg2d: Sum(rhs),rhsMax =                    NaN                   NaN
 cg2d: Sum(rhs),rhsMax =                    NaN                   NaN
 cg2d: Sum(rhs),rhsMax =                    NaN                   NaN
 cg2d: Sum(rhs),rhsMax =                    NaN                   NaN
 cg2d: Sum(rhs),rhsMax =                    NaN                   NaN
 cg2d: Sum(rhs),rhsMax =                    NaN                   NaN
 cg2d: Sum(rhs),rhsMax =                    NaN                   NaN
 cg2d: Sum(rhs),rhsMax =                    NaN                   NaN
 cg2d: Sum(rhs),rhsMax =                    NaN                   NaN
 cg2d: Sum(rhs),rhsMax =                    NaN                   NaN
 cg2d: Sum(rhs),rhsMax =                    NaN                   NaN
 cg2d: Sum(rhs),rhsMax =                    NaN                   NaN
 cg2d: Sum(rhs),rhsMax =                    NaN                   NaN
 cg2d: Sum(rhs),rhsMax =                    NaN                   NaN
 cg2d: Sum(rhs),rhsMax =                    NaN                   NaN
 cg2d: Sum(rhs),rhsMax =                    NaN                   NaN
 cg2d: Sum(rhs),rhsMax =                    NaN                   NaN
(PID.TID 0042.0001)      cg2d_init_res =                    NaN
(PID.TID 0042.0001)      cg2d_iters(min,last) =      -1    5000
(PID.TID 0042.0001)      cg2d_last_res =                    NaN
(PID.TID 0042.0001) %CHECKPOINT     17280 ckptA
(PID.TID 0042.0001)   Seconds in section "ALL                    [THE_MODEL_MAIN]":
(PID.TID 0042.0001)           User time:   25133.543795496225
(PID.TID 0042.0001)         System time:   11.682780265808105
(PID.TID 0042.0001)     Wall clock time:   25155.737368106842
(PID.TID 0042.0001)          No. starts:           1
(PID.TID 0042.0001)           No. stops:           1
(PID.TID 0042.0001)   Seconds in section "INITIALISE_FIXED       [THE_MODEL_MAIN]":
(PID.TID 0042.0001)           User time:   3.1112409234046936
(PID.TID 0042.0001)         System time:   3.8249492645263672E-003
(PID.TID 0042.0001)     Wall clock time:   3.4801778793334961
(PID.TID 0042.0001)          No. starts:           1
(PID.TID 0042.0001)           No. stops:           1
(PID.TID 0042.0001)   Seconds in section "THE_MAIN_LOOP          [THE_MODEL_MAIN]":
(PID.TID 0042.0001)           User time:   25130.432539463043
(PID.TID 0042.0001)         System time:   11.678937435150146
(PID.TID 0042.0001)     Wall clock time:   25152.257164955139
(PID.TID 0042.0001)          No. starts:           1
(PID.TID 0042.0001)           No. stops:           1
(PID.TID 0042.0001)   Seconds in section "INITIALISE_VARIA    [THE_MAIN_LOOP]":
(PID.TID 0042.0001)           User time:   1.0660858154296875
(PID.TID 0042.0001)         System time:   1.0650157928466797E-003
(PID.TID 0042.0001)     Wall clock time:  0.96054792404174805
(PID.TID 0042.0001)          No. starts:           1
(PID.TID 0042.0001)           No. stops:           1
(PID.TID 0042.0001)   Seconds in section "MAIN LOOP           [THE_MAIN_LOOP]":
(PID.TID 0042.0001)           User time:   25129.366421699524
(PID.TID 0042.0001)         System time:   11.677859306335449
(PID.TID 0042.0001)     Wall clock time:   25151.296588897705
(PID.TID 0042.0001)          No. starts:           1
(PID.TID 0042.0001)           No. stops:           1
(PID.TID 0042.0001)   Seconds in section "MAIN_DO_LOOP        [THE_MAIN_LOOP]":
(PID.TID 0042.0001)           User time:   25129.186022281647
(PID.TID 0042.0001)         System time:   11.675596714019775
(PID.TID 0042.0001)     Wall clock time:   25151.150448560715
(PID.TID 0042.0001)          No. starts:       17280
(PID.TID 0042.0001)           No. stops:       17280
(PID.TID 0042.0001)   Seconds in section "FORWARD_STEP        [MAIN_DO_LOOP]":
(PID.TID 0042.0001)           User time:   25128.863390445709
(PID.TID 0042.0001)         System time:   11.671386241912842
(PID.TID 0042.0001)     Wall clock time:   25150.856666564941
(PID.TID 0042.0001)          No. starts:       17280
(PID.TID 0042.0001)           No. stops:       17280
(PID.TID 0042.0001)   Seconds in section "DO_STATEVARS_DIAGS  [FORWARD_STEP]":
(PID.TID 0042.0001)           User time:  0.45278024673461914
(PID.TID 0042.0001)         System time:   7.8163146972656250E-003
(PID.TID 0042.0001)     Wall clock time:  0.50177860260009766
(PID.TID 0042.0001)          No. starts:       34560
(PID.TID 0042.0001)           No. stops:       34560
(PID.TID 0042.0001)   Seconds in section "LOAD_FIELDS_DRIVER  [FORWARD_STEP]":
(PID.TID 0042.0001)           User time:   1.7828540802001953
(PID.TID 0042.0001)         System time:   2.7158021926879883E-002
(PID.TID 0042.0001)     Wall clock time:   1.7541651725769043
(PID.TID 0042.0001)          No. starts:       17280
(PID.TID 0042.0001)           No. stops:       17280
(PID.TID 0042.0001)   Seconds in section "EXTERNAL_FLDS_LOAD [LOAD_FLDS_DRIVER]":
(PID.TID 0042.0001)           User time:  0.14198255538940430
(PID.TID 0042.0001)         System time:   2.8619766235351562E-003
(PID.TID 0042.0001)     Wall clock time:  0.15301132202148438
(PID.TID 0042.0001)          No. starts:       17280
(PID.TID 0042.0001)           No. stops:       17280
(PID.TID 0042.0001)   Seconds in section "DO_ATMOSPHERIC_PHYS [FORWARD_STEP]":
(PID.TID 0042.0001)           User time:  0.14368009567260742
(PID.TID 0042.0001)         System time:   2.9983520507812500E-003
(PID.TID 0042.0001)     Wall clock time:  0.14748144149780273
(PID.TID 0042.0001)          No. starts:       17280
(PID.TID 0042.0001)           No. stops:       17280
(PID.TID 0042.0001)   Seconds in section "DO_OCEANIC_PHYS     [FORWARD_STEP]":
(PID.TID 0042.0001)           User time:   21.665576934814453
(PID.TID 0042.0001)         System time:  0.26746273040771484
(PID.TID 0042.0001)     Wall clock time:   20.877870082855225
(PID.TID 0042.0001)          No. starts:       17280
(PID.TID 0042.0001)           No. stops:       17280
(PID.TID 0042.0001)   Seconds in section "THERMODYNAMICS      [FORWARD_STEP]":
(PID.TID 0042.0001)           User time:  0.16200733184814453
(PID.TID 0042.0001)         System time:   1.2416839599609375E-003
(PID.TID 0042.0001)     Wall clock time:  0.15205788612365723
(PID.TID 0042.0001)          No. starts:       17280
(PID.TID 0042.0001)           No. stops:       17280
(PID.TID 0042.0001)   Seconds in section "DYNAMICS            [FORWARD_STEP]":
(PID.TID 0042.0001)           User time:   190.93492889404297
(PID.TID 0042.0001)         System time:  0.17637515068054199
(PID.TID 0042.0001)     Wall clock time:   182.00513792037964
(PID.TID 0042.0001)          No. starts:       17280
(PID.TID 0042.0001)           No. stops:       17280
(PID.TID 0042.0001)   Seconds in section "SOLVE_FOR_PRESSURE  [FORWARD_STEP]":
(PID.TID 0042.0001)           User time:   24797.603810310364
(PID.TID 0042.0001)         System time:   10.731067657470703
(PID.TID 0042.0001)     Wall clock time:   24825.403850317001
(PID.TID 0042.0001)          No. starts:       17280
(PID.TID 0042.0001)           No. stops:       17280
(PID.TID 0042.0001)   Seconds in section "MOM_CORRECTION_STEP [FORWARD_STEP]":
(PID.TID 0042.0001)           User time:   14.159828186035156
(PID.TID 0042.0001)         System time:  0.15393304824829102
(PID.TID 0042.0001)     Wall clock time:   13.631456136703491
(PID.TID 0042.0001)          No. starts:       17280
(PID.TID 0042.0001)           No. stops:       17280
(PID.TID 0042.0001)   Seconds in section "INTEGR_CONTINUITY   [FORWARD_STEP]":
(PID.TID 0042.0001)           User time:   34.960715293884277
(PID.TID 0042.0001)         System time:  0.21672749519348145
(PID.TID 0042.0001)     Wall clock time:   33.561848878860474
(PID.TID 0042.0001)          No. starts:       17280
(PID.TID 0042.0001)           No. stops:       17280
(PID.TID 0042.0001)   Seconds in section "TRC_CORRECTION_STEP [FORWARD_STEP]":
(PID.TID 0042.0001)           User time:  0.16228294372558594
(PID.TID 0042.0001)         System time:   8.6617469787597656E-004
(PID.TID 0042.0001)     Wall clock time:  0.15300488471984863
(PID.TID 0042.0001)          No. starts:       17280
(PID.TID 0042.0001)           No. stops:       17280
(PID.TID 0042.0001)   Seconds in section "BLOCKING_EXCHANGES  [FORWARD_STEP]":
(PID.TID 0042.0001)           User time:   7.1071848869323730
(PID.TID 0042.0001)         System time:   2.6593446731567383E-002
(PID.TID 0042.0001)     Wall clock time:   6.6278052330017090
(PID.TID 0042.0001)          No. starts:       17280
(PID.TID 0042.0001)           No. stops:       17280
(PID.TID 0042.0001)   Seconds in section "MONITOR             [FORWARD_STEP]":
(PID.TID 0042.0001)           User time:  0.22184658050537109
(PID.TID 0042.0001)         System time:   1.8806457519531250E-003
(PID.TID 0042.0001)     Wall clock time:  0.21091485023498535
(PID.TID 0042.0001)          No. starts:       17280
(PID.TID 0042.0001)           No. stops:       17280
(PID.TID 0042.0001)   Seconds in section "DO_THE_MODEL_IO     [FORWARD_STEP]":
(PID.TID 0042.0001)           User time:   54.672998905181885
(PID.TID 0042.0001)         System time:   7.0903301239013672E-003
(PID.TID 0042.0001)     Wall clock time:   61.639111042022705
(PID.TID 0042.0001)          No. starts:       17280
(PID.TID 0042.0001)           No. stops:       17280
(PID.TID 0042.0001)   Seconds in section "DO_WRITE_PICKUP     [FORWARD_STEP]":
(PID.TID 0042.0001)           User time:   1.9254951477050781
(PID.TID 0042.0001)         System time:   3.1685829162597656E-003
(PID.TID 0042.0001)     Wall clock time:   1.7375404834747314
(PID.TID 0042.0001)          No. starts:       17280
(PID.TID 0042.0001)           No. stops:       17280
(PID.TID 0042.0001) // ======================================================
(PID.TID 0042.0001) // Tile <-> Tile communication statistics
(PID.TID 0042.0001) // ======================================================
(PID.TID 0042.0001) // o Tile number: 000035
(PID.TID 0042.0001) //         No. X exchanges =              0
(PID.TID 0042.0001) //            Max. X spins =              0
(PID.TID 0042.0001) //            Min. X spins =     1000000000
(PID.TID 0042.0001) //          Total. X spins =              0
(PID.TID 0042.0001) //            Avg. X spins =       0.00E+00
(PID.TID 0042.0001) //         No. Y exchanges =              0
(PID.TID 0042.0001) //            Max. Y spins =              0
(PID.TID 0042.0001) //            Min. Y spins =     1000000000
(PID.TID 0042.0001) //          Total. Y spins =              0
(PID.TID 0042.0001) //            Avg. Y spins =       0.00E+00
(PID.TID 0042.0001) // o Thread number: 000001
(PID.TID 0042.0001) //            No. barriers =      172761826
(PID.TID 0042.0001) //      Max. barrier spins =              1
(PID.TID 0042.0001) //      Min. barrier spins =              1
(PID.TID 0042.0001) //     Total barrier spins =      172761826
(PID.TID 0042.0001) //      Avg. barrier spins =       1.00E+00
PROGRAM MAIN: Execution ended Normally
