(PID.TID 0025.0001) W2_E2SETUP: number of Active Tiles =      48
(PID.TID 0025.0001) W2_E2SETUP: number of Blank Tiles  =       0
(PID.TID 0025.0001) W2_E2SETUP: Total number of Tiles  =      48
(PID.TID 0025.0001) W2_SET_CS6_FACETS: preDefTopol=  3 selected
(PID.TID 0025.0001) W2_SET_CS6_FACETS: facet-dims Unset; assume nRd=nGr=nBl=   32
(PID.TID 0025.0001) W2_E2SETUP: Total number of Facets =       6
(PID.TID 0025.0001) W2_SET_F2F_INDEX: index matrix for connected Facet-Edges:
(PID.TID 0025.0001) W2_SET_MAP_TILES: tile mapping within facet and global Map:
(PID.TID 0025.0001)  W2_mapIO =   32 (=    2*sNx)
(PID.TID 0025.0001)  Global Map (IO): X-size=      32 , Y-size=     192
(PID.TID 0025.0001) W2_SET_MAP_TILES: tile offset within facet and global Map:
- facet  1 : X-size=    32 , Y-size=    32 ;       8 tiles (Tx,Ty=   2,   4)
- facet  2 : X-size=    32 , Y-size=    32 ;       8 tiles (Tx,Ty=   2,   4)
- facet  3 : X-size=    32 , Y-size=    32 ;       8 tiles (Tx,Ty=   2,   4)
- facet  4 : X-size=    32 , Y-size=    32 ;       8 tiles (Tx,Ty=   2,   4)
- facet  5 : X-size=    32 , Y-size=    32 ;       8 tiles (Tx,Ty=   2,   4)
- facet  6 : X-size=    32 , Y-size=    32 ;       8 tiles (Tx,Ty=   2,   4)
(PID.TID 0025.0001) W2_SET_MAP_CUMSUM: setting Facet Matrix for CUMUL-SUM
(PID.TID 0025.0001) W2_SET_MAP_CUMSUM: set    5 /   6 active facets (pass,type=   1, 1)
(PID.TID 0025.0001) W2_SET_MAP_CUMSUM: done (skip Tile Matrix setting)
(PID.TID 0025.0001) W2_SET_TILE2TILES: tile neighbours and index connection:
(PID.TID 0025.0001) current Max.Nb.Neighbours (e.g., on tile    7 ) =  5
(PID.TID 0025.0001) ===== W2 TILE TOPOLOGY =====
(PID.TID 0025.0001)  TILE:    26 (bi,bj=   1   1 ), Nb of Neighbours =  5
(PID.TID 0025.0001)     NEIGHBOUR  1 = TILE      28 (n=  2) Comm = MSG (PROC=      28)
(PID.TID 0025.0001)     NEIGHBOUR  2 = TILE      10 (n=  4) Comm = MSG (PROC=      10)
(PID.TID 0025.0001)     NEIGHBOUR  3 = TILE      12 (n=  3) Comm = MSG (PROC=      12)
(PID.TID 0025.0001)     NEIGHBOUR  4 = TILE      42 (n=  2) Comm = MSG (PROC=      42)
(PID.TID 0025.0001)     NEIGHBOUR  5 = TILE      25 (n=  4) Comm = MSG (PROC=      25)
Tile      26 (pr=      26) sends pts i=  -1:  18, j=   7:   8
                              to pts i=  -1:  18, j=  -1:   0 in tile       28 (pr=      28)
Tile      26 (pr=      26) sends pts i=  18:   7, j=   1:   2
                              to pts i=  17:  18, j=  -1:  10 in tile       10 (pr=      10)
Tile      26 (pr=      26) sends pts i=  10:  -1, j=   1:   2
                              to pts i=  17:  18, j=  -1:  10 in tile       12 (pr=      12)
Tile      26 (pr=      26) sends pts i=  15:  16, j=  10:  -1
                              to pts i=   7:  18, j=  -1:   0 in tile       42 (pr=      42)
Tile      26 (pr=      26) sends pts i=   1:   2, j=  -1:  10
                              to pts i=  17:  18, j=  -1:  10 in tile       25 (pr=      25)
Tile      26 (pr=      26) recv pts i=  -1:  18, j=   9:  10 from tile      28 (pr=      28)
Tile      26 (pr=      26) recv pts i=   7:  18, j=  -1:   0 from tile      10 (pr=      10)
Tile      26 (pr=      26) recv pts i=  -1:  10, j=  -1:   0 from tile      12 (pr=      12)
Tile      26 (pr=      26) recv pts i=  17:  18, j=  -1:  10 from tile      42 (pr=      42)
Tile      26 (pr=      26) recv pts i=  -1:   0, j=  -1:  10 from tile      25 (pr=      25)
(PID.TID 0025.0001) ===  End TOPOLOGY report ===
