(PID.TID 0002.0001) 
(PID.TID 0002.0001) // ======================================================
(PID.TID 0002.0001) //                      MITgcm UV
(PID.TID 0002.0001) //                      =========
(PID.TID 0002.0001) // ======================================================
(PID.TID 0002.0001) // execution environment starting up...
(PID.TID 0002.0001) 
(PID.TID 0002.0001) // MITgcmUV version:  checkpoint69i
(PID.TID 0002.0001) // Build user:        hodahashemi
(PID.TID 0002.0001) // Build host:        Hodas-MacBook-Pro.local
(PID.TID 0002.0001) // Build date:        Sun Feb 22 01:13:36 EET 2026
(PID.TID 0002.0001) 
(PID.TID 0002.0001) // =======================================================
(PID.TID 0002.0001) // Execution Environment parameter file "eedata"
(PID.TID 0002.0001) // =======================================================
(PID.TID 0002.0001) > &EEPARMS
(PID.TID 0002.0001) >  nTx=1,
(PID.TID 0002.0001) >  nTy=1,
(PID.TID 0002.0001) > /
(PID.TID 0002.0001) >
(PID.TID 0002.0001) 
(PID.TID 0002.0001) // =======================================================
(PID.TID 0002.0001) // Computational Grid Specification ( see files "SIZE.h" )
(PID.TID 0002.0001) //                                  ( and "eedata"       )
(PID.TID 0002.0001) // =======================================================
(PID.TID 0002.0001)      nPx =    4 ; /* No. processes in X */
(PID.TID 0002.0001)      nPy =    2 ; /* No. processes in Y */
(PID.TID 0002.0001)      nSx =    1 ; /* No. tiles in X per process */
(PID.TID 0002.0001)      nSy =    1 ; /* No. tiles in Y per process */
(PID.TID 0002.0001)      sNx =  360 ; /* Tile size in X */
(PID.TID 0002.0001)      sNy =  360 ; /* Tile size in Y */
(PID.TID 0002.0001)      OLx =    2 ; /* Tile overlap distance in X */
(PID.TID 0002.0001)      OLy =    2 ; /* Tile overlap distance in Y */
(PID.TID 0002.0001)      nTx =    1 ; /* No. threads in X per process */
(PID.TID 0002.0001)      nTy =    1 ; /* No. threads in Y per process */
(PID.TID 0002.0001)       Nr =    1 ; /* No. levels in the vertical   */
(PID.TID 0002.0001)       Nx = 1440 ; /* Total domain size in X ( = nPx*nSx*sNx ) */
(PID.TID 0002.0001)       Ny =  720 ; /* Total domain size in Y ( = nPy*nSy*sNy ) */
(PID.TID 0002.0001)   nTiles =    1 ; /* Total no. tiles per process ( = nSx*nSy ) */
(PID.TID 0002.0001)   nProcs =    8 ; /* Total no. processes ( = nPx*nPy ) */
(PID.TID 0002.0001) nThreads =    1 ; /* Total no. threads per process ( = nTx*nTy ) */
(PID.TID 0002.0001) usingMPI =    T ; /* Flag used to control whether MPI is in use */
(PID.TID 0002.0001)                   /*  note: To execute a program with MPI calls */
(PID.TID 0002.0001)                   /*  it must be launched appropriately e.g     */
(PID.TID 0002.0001)                   /*  "mpirun -np 64 ......"                    */
(PID.TID 0002.0001) useCoupler=   F ; /* Flag used to control communications with   */
(PID.TID 0002.0001)                   /*  other model components, through a coupler */
(PID.TID 0002.0001) useNest2W_parent =    F ;/* Control 2-W Nesting comm */
(PID.TID 0002.0001) useNest2W_child  =    F ;/* Control 2-W Nesting comm */
(PID.TID 0002.0001) debugMode =    F ; /* print debug msg. (sequence of S/R calls)  */
(PID.TID 0002.0001) printMapIncludesZeros=    F ; /* print zeros in Std.Output maps */
(PID.TID 0002.0001) maxLengthPrt1D=   65 /* maxLength of 1D array printed to StdOut */
(PID.TID 0002.0001) 
(PID.TID 0002.0001) ======= Starting MPI parallel Run =========
(PID.TID 0002.0001)  My Processor Name (len: 23 ) = Hodas-MacBook-Pro.local
(PID.TID 0002.0001)  Located at (  1,  0) on processor grid (0:  3,0:  1)
(PID.TID 0002.0001)  Origin at  (   361,     1) on global grid (1:  1440,1:   720)
(PID.TID 0002.0001)  North neighbor = processor 0003
(PID.TID 0002.0001)  South neighbor = processor 0003
(PID.TID 0002.0001)   East neighbor = processor 0004
(PID.TID 0002.0001)   West neighbor = processor 0000
(PID.TID 0002.0001) // ======================================================
(PID.TID 0002.0001) // Mapping of tiles to threads
(PID.TID 0002.0001) // ======================================================
(PID.TID 0002.0001) // -o- Thread   1, tiles (   1:   1,   1:   1)
(PID.TID 0002.0001) 
(PID.TID 0002.0001) // ======================================================
(PID.TID 0002.0001) // Tile <-> Tile connectvity table
(PID.TID 0002.0001) // ======================================================
(PID.TID 0002.0001) // Tile number: 000002 (process no. = 000002)
(PID.TID 0002.0001) //        WEST: Tile = 000001, Process = 000000, Comm = messages
(PID.TID 0002.0001) //                bi = 000001, bj = 000001
(PID.TID 0002.0001) //        EAST: Tile = 000003, Process = 000004, Comm = messages
(PID.TID 0002.0001) //                bi = 000001, bj = 000001
(PID.TID 0002.0001) //       SOUTH: Tile = 000006, Process = 000003, Comm = messages
(PID.TID 0002.0001) //                bi = 000001, bj = 000001
(PID.TID 0002.0001) //       NORTH: Tile = 000006, Process = 000003, Comm = messages
(PID.TID 0002.0001) //                bi = 000001, bj = 000001
(PID.TID 0002.0001) 
(PID.TID 0002.0001)  INI_PARMS: opening model parameter file "data"
(PID.TID 0002.0001)  OPEN_COPY_DATA_FILE: opening file data
(PID.TID 0002.0001) // =======================================================
(PID.TID 0002.0001) // Parameter file "data"
(PID.TID 0002.0001) // =======================================================
(PID.TID 0002.0001) >&PARM01
(PID.TID 0002.0001) >#rotationPeriod is set ini_parms: 86164 \approx 7.292123516990375e-5 ; our fortan is c/86400
(PID.TID 0002.0001) ># 7.27220521664304e-5 , 6.283185307179586
(PID.TID 0002.0001) >omega = 7.292E-5,
(PID.TID 0002.0001) ># MAYBE WE NEED TO ADD 1E2 FOR STABILITY IDK
(PID.TID 0002.0001) >viscAh  = 0.,
(PID.TID 0002.0001) >viscA4  = 0.,
(PID.TID 0002.0001) >diffKhT = 0.,
(PID.TID 0002.0001) >no_slip_sides = .FALSE.,
(PID.TID 0002.0001) >no_slip_bottom = .FALSE.,
(PID.TID 0002.0001) >exactConserv=.TRUE.,
(PID.TID 0002.0001) >momStepping=.FALSE.,
(PID.TID 0002.0001) >tempStepping=.FALSE.,
(PID.TID 0002.0001) >saltStepping=.FALSE.,
(PID.TID 0002.0001) >hFacMin=0.00001,
(PID.TID 0002.0001) >hFacMinDr=0.5,
(PID.TID 0002.0001) >/
(PID.TID 0002.0001) >
(PID.TID 0002.0001) >&PARM02
(PID.TID 0002.0001) >cg2dMaxIters = 10000,
(PID.TID 0002.0001) ># 5000,
(PID.TID 0002.0001) >cg2dTargetResidual = 1.E-8,
(PID.TID 0002.0001) >cg2dPreCondFreq = 1,
(PID.TID 0002.0001) >printResidualFreq= 1 ,
(PID.TID 0002.0001) >/
(PID.TID 0002.0001) >
(PID.TID 0002.0001) >&PARM03
(PID.TID 0002.0001) >nIter0   = 0,
(PID.TID 0002.0001) >nTimeSteps = 0,
(PID.TID 0002.0001) >deltaT   = 3600.,
(PID.TID 0002.0001) >monitorFreq=10,
(PID.TID 0002.0001) >/
(PID.TID 0002.0001) >
(PID.TID 0002.0001) >&PARM04
(PID.TID 0002.0001) >usingSphericalPolarGrid = .TRUE.,
(PID.TID 0002.0001) >delX = 1440*0.25,
(PID.TID 0002.0001) >delY = 720*0.25,
(PID.TID 0002.0001) >xgOrigin = 0.,
(PID.TID 0002.0001) >ygOrigin = -90.,
(PID.TID 0002.0001) >rSphere = 6371000.,
(PID.TID 0002.0001) >#clipping elevation of water
(PID.TID 0002.0001) >delR =  11000.0,
(PID.TID 0002.0001) ># 11000.0 ,
(PID.TID 0002.0001) >
(PID.TID 0002.0001) >/
(PID.TID 0002.0001) >
(PID.TID 0002.0001) ># Input datasets
(PID.TID 0002.0001) >&PARM05
(PID.TID 0002.0001) >bathyFile='bathymetry.bin',
(PID.TID 0002.0001) ># bathyFile='',
(PID.TID 0002.0001) >#  zonalWindFile='wind.bin',# Forcing to drive the "steady" circulation
(PID.TID 0002.0001) >
(PID.TID 0002.0001) >/
(PID.TID 0002.0001) >
(PID.TID 0002.0001) 
(PID.TID 0002.0001)  INI_PARMS ; starts to read PARM01
(PID.TID 0002.0001)  INI_PARMS ; read PARM01 : OK
(PID.TID 0002.0001) S/R INI_PARMS: No request for barotropic solver
(PID.TID 0002.0001) S/R INI_PARMS: => Use implicitFreeSurface as default
(PID.TID 0002.0001)  INI_PARMS ; starts to read PARM02
(PID.TID 0002.0001)  INI_PARMS ; read PARM02 : OK
(PID.TID 0002.0001)  INI_PARMS ; starts to read PARM03
(PID.TID 0002.0001)  INI_PARMS ; read PARM03 : OK
(PID.TID 0002.0001)  INI_PARMS ; starts to read PARM04
(PID.TID 0002.0001)  INI_PARMS ; read PARM04 : OK
(PID.TID 0002.0001)  INI_PARMS ; starts to read PARM05
(PID.TID 0002.0001)  INI_PARMS ; read PARM05 : OK
(PID.TID 0002.0001)  INI_PARMS: finished reading file "data"
(PID.TID 0002.0001)  PACKAGES_BOOT: opening data.pkg
(PID.TID 0002.0001)  OPEN_COPY_DATA_FILE: opening file data.pkg
(PID.TID 0002.0001) // =======================================================
(PID.TID 0002.0001) // Parameter file "data.pkg"
(PID.TID 0002.0001) // =======================================================
(PID.TID 0002.0001) > &PACKAGES
(PID.TID 0002.0001) >  useMyPackage = .TRUE.,
(PID.TID 0002.0001) > /
(PID.TID 0002.0001) 
(PID.TID 0002.0001)  PACKAGES_BOOT: finished reading data.pkg
(PID.TID 0002.0001)  PACKAGES_BOOT: On/Off package Summary
 --------  pkgs with a standard "usePKG" On/Off switch in "data.pkg":  --------
 pkg/mypackage            compiled   and   used ( useMYPACKAGE             = T )
 -------- pkgs without standard "usePKG" On/Off switch in "data.pkg":  --------
 pkg/generic_advdiff      compiled but not used ( useGAD                   = F )
 pkg/mom_common           compiled but not used ( momStepping              = F )
 pkg/mom_vecinv           compiled but not used ( +vectorInvariantMomentum = F )
 pkg/mom_fluxform         compiled but not used ( & not vectorInvariantMom = F )
 pkg/monitor              compiled   and   used ( monitorFreq > 0.         = T )
 pkg/debug                compiled but not used ( debugMode                = F )
 pkg/rw                   compiled   and   used
 pkg/mdsio                compiled   and   used
(PID.TID 0002.0001)  PACKAGES_BOOT: End of package Summary
(PID.TID 0002.0001) 
(PID.TID 0002.0001) MYPACKAGE_READPARMS: opening data.mypackage
(PID.TID 0002.0001)  OPEN_COPY_DATA_FILE: opening file data.mypackage
(PID.TID 0002.0001) // =======================================================
(PID.TID 0002.0001) // Parameter file "data.mypackage"
(PID.TID 0002.0001) // =======================================================
(PID.TID 0002.0001) >&MYPACKAGE_PARM01
(PID.TID 0002.0001) >/
(PID.TID 0002.0001) 
(PID.TID 0002.0001) MYPACKAGE_READPARMS: finished reading data.mypackage
(PID.TID 0002.0001) SET_PARMS: done
(PID.TID 0002.0001) Enter INI_VERTICAL_GRID: setInterFDr=    T ; setCenterDr=    F
(PID.TID 0002.0001) %MON XC_max                       =   3.5987500000000E+02
(PID.TID 0002.0001) %MON XC_min                       =   1.2500000000000E-01
(PID.TID 0002.0001) %MON XC_mean                      =   1.8000000000000E+02
(PID.TID 0002.0001) %MON XC_sd                        =   1.0392302339552E+02
(PID.TID 0002.0001) %MON XG_max                       =   3.5975000000000E+02
(PID.TID 0002.0001) %MON XG_min                       =   0.0000000000000E+00
(PID.TID 0002.0001) %MON XG_mean                      =   1.7987500000000E+02
(PID.TID 0002.0001) %MON XG_sd                        =   1.0392302339552E+02
(PID.TID 0002.0001) %MON DXC_max                      =   2.7798665505088E+04
(PID.TID 0002.0001) %MON DXC_min                      =   6.0647376310612E+01
(PID.TID 0002.0001) %MON DXC_mean                     =   1.7697236260984E+04
(PID.TID 0002.0001) %MON DXC_sd                       =   8.5552656128781E+03
(PID.TID 0002.0001) %MON DXF_max                      =   2.7798665505088E+04
(PID.TID 0002.0001) %MON DXF_min                      =   6.0647376310612E+01
(PID.TID 0002.0001) %MON DXF_mean                     =   1.7697236260984E+04
(PID.TID 0002.0001) %MON DXF_sd                       =   8.5552656128781E+03
(PID.TID 0002.0001) %MON DXG_max                      =   2.7798731661140E+04
(PID.TID 0002.0001) %MON DXG_min                      =   0.0000000000000E+00
(PID.TID 0002.0001) %MON DXG_mean                     =   1.7697194144702E+04
(PID.TID 0002.0001) %MON DXG_sd                       =   8.5553527331570E+03
(PID.TID 0002.0001) %MON DXV_max                      =   2.7798731661140E+04
(PID.TID 0002.0001) %MON DXV_min                      =   0.0000000000000E+00
(PID.TID 0002.0001) %MON DXV_mean                     =   1.7697194144702E+04
(PID.TID 0002.0001) %MON DXV_sd                       =   8.5553527331570E+03
(PID.TID 0002.0001) %MON YC_max                       =   8.9875000000000E+01
(PID.TID 0002.0001) %MON YC_min                       =  -8.9875000000000E+01
(PID.TID 0002.0001) %MON YC_mean                      =   0.0000000000000E+00
(PID.TID 0002.0001) %MON YC_sd                        =   5.1961474109831E+01
(PID.TID 0002.0001) %MON YG_max                       =   8.9750000000000E+01
(PID.TID 0002.0001) %MON YG_min                       =  -9.0000000000000E+01
(PID.TID 0002.0001) %MON YG_mean                      =  -1.2500000000000E-01
(PID.TID 0002.0001) %MON YG_sd                        =   5.1961474109831E+01
(PID.TID 0002.0001) %MON DYC_max                      =   2.7798731661140E+04
(PID.TID 0002.0001) %MON DYC_min                      =   2.7798731661140E+04
(PID.TID 0002.0001) %MON DYC_mean                     =   2.7798731661186E+04
(PID.TID 0002.0001) %MON DYC_sd                       =   4.6802597353235E-08
(PID.TID 0002.0001) %MON DYF_max                      =   2.7798731661140E+04
(PID.TID 0002.0001) %MON DYF_min                      =   2.7798731661140E+04
(PID.TID 0002.0001) %MON DYF_mean                     =   2.7798731661186E+04
(PID.TID 0002.0001) %MON DYF_sd                       =   4.6802597353235E-08
(PID.TID 0002.0001) %MON DYG_max                      =   2.7798731661140E+04
(PID.TID 0002.0001) %MON DYG_min                      =   2.7798731661140E+04
(PID.TID 0002.0001) %MON DYG_mean                     =   2.7798731661186E+04
(PID.TID 0002.0001) %MON DYG_sd                       =   4.6802597353235E-08
(PID.TID 0002.0001) %MON DYU_max                      =   2.7798731661140E+04
(PID.TID 0002.0001) %MON DYU_min                      =   2.7798731661140E+04
(PID.TID 0002.0001) %MON DYU_mean                     =   2.7798731661186E+04
(PID.TID 0002.0001) %MON DYU_sd                       =   4.6802597353235E-08
(PID.TID 0002.0001) %MON RA_max                       =   7.7276702989699E+08
(PID.TID 0002.0001) %MON RA_min                       =   1.6859188026131E+06
(PID.TID 0002.0001) %MON RA_mean                      =   4.9196033170312E+08
(PID.TID 0002.0001) %MON RA_sd                        =   2.3782534440125E+08
(PID.TID 0002.0001) %MON RAW_max                      =   7.7276702989699E+08
(PID.TID 0002.0001) %MON RAW_min                      =   1.6859188026131E+06
(PID.TID 0002.0001) %MON RAW_mean                     =   4.9196033170312E+08
(PID.TID 0002.0001) %MON RAW_sd                       =   2.3782534440125E+08
(PID.TID 0002.0001) %MON RAS_max                      =   7.7276886894985E+08
(PID.TID 0002.0001) %MON RAS_min                      =   0.0000000000000E+00
(PID.TID 0002.0001) %MON RAS_mean                     =   4.9195916092479E+08
(PID.TID 0002.0001) %MON RAS_sd                       =   2.3782776623264E+08
(PID.TID 0002.0001) %MON RAZ_max                      =   7.7276886894985E+08
(PID.TID 0002.0001) %MON RAZ_min                      =   0.0000000000000E+00
(PID.TID 0002.0001) %MON RAZ_mean                     =   4.9195916092479E+08
(PID.TID 0002.0001) %MON RAZ_sd                       =   2.3782776623264E+08
(PID.TID 0002.0001) %MON AngleCS_max                  =   1.0000000000000E+00
(PID.TID 0002.0001) %MON AngleCS_min                  =   1.0000000000000E+00
(PID.TID 0002.0001) %MON AngleCS_mean                 =   1.0000000000000E+00
(PID.TID 0002.0001) %MON AngleCS_sd                   =   0.0000000000000E+00
(PID.TID 0002.0001) %MON AngleSN_max                  =   0.0000000000000E+00
(PID.TID 0002.0001) %MON AngleSN_min                  =   0.0000000000000E+00
(PID.TID 0002.0001) %MON AngleSN_mean                 =   0.0000000000000E+00
(PID.TID 0002.0001) %MON AngleSN_sd                   =   0.0000000000000E+00
(PID.TID 0002.0001)  MDS_READ_FIELD: opening global file: bathymetry.bin
(PID.TID 0002.0001) // =======================================================
(PID.TID 0002.0001) // Field Model R_low (ini_masks_etc)
(PID.TID 0002.0001) // CMIN =         -8.138753906250000E+03
(PID.TID 0002.0001) // CMAX =         -4.999999999999999E-01
(PID.TID 0002.0001) // CINT =          3.014168113425926E+02
(PID.TID 0002.0001) // SYMBOLS (CMIN->CMAX): -abcdefghijklmnopqrstuvwxyz+
(PID.TID 0002.0001) //                  0.0: .
(PID.TID 0002.0001) // RANGE I (Lo:Hi:Step):(   359:   722:     1)
(PID.TID 0002.0001) // RANGE J (Lo:Hi:Step):(   362:    -1:    -1)
(PID.TID 0002.0001) // RANGE K (Lo:Hi:Step):(   1:   1:   1)
(PID.TID 0002.0001) // =======================================================
(PID.TID 0002.0001) K =   1
(PID.TID 0002.0001) //                I=368     I=378     I=388     I=398     I=408     I=418     I=428     I=438     I=448     I=458     I=468     I=478     I=488     I=498     I=508     I=518     I=528     I=538     I=548     I=558     I=568     I=578     I=588     I=598     I=608     I=618     I=628     I=638     I=648     I=658     I=668     I=678     I=688     I=698     I=708     I=718
(PID.TID 0002.0001) // |--J--|901234567|901234567|901234567|901234567|901234567|901234567|901234567|901234567|901234567|901234567|901234567|901234567|901234567|901234567|901234567|901234567|901234567|901234567|901234567|901234567|901234567|901234567|901234567|901234567|901234567|901234567|901234567|901234567|901234567|901234567|901234567|901234567|901234567|901234567|901234567|901234567|9012
(PID.TID 0002.0001) //    362 omnmlllllllllllllllllllmmmlkjinsyzyz+++..............++.++++++++++++++++++++++..................................+ywvvuutt++zz+zzxxyvwwx..+zyvorsttssruyz++zz+yxxxzzyxzyvpmmnnnnnnnmlkljkklmmmmmmmmnnnoopppppqqqqppqqqqqppooooppponnmmmlllllllidplkjjjiiijjklllmnopqqqqqrsstttttttttssssrrrrqqqponmmmmmmmmmmmmmmllllllmmllllllmmmlllmmmllkkkkklputymlklmlkjjjjjjjjjjjjiiiijjj
(PID.TID 0002.0001) //    361 ommllllllllllllllllllllmmllkjjlrwzz++++++...........+....++++++++++++++++++++++................................++zwtsssty+zxwwwvuuttsrqrrqqqporstssrqu+zz+xvvwxyxz+zzxurnmmnnnnooooooqlkjjkkllmmmmmnnoopppqqqqqqqqqqqqqpoooooppppponmmllllmmlidolkjjjiiijkkkllmnoqrsrrrrssttttttttttsssrrrrqqpponmmmmmmmlllllllllllllmmmllllmmmmmlllllllkkkkkkmsvsmlkkkkkjjjjjjjjjjjjjjjjjjj
(PID.TID 0002.0001) //    360 qponlllllllllllllllllllllllkkjkrvzz++++++..............++++++++++++++++++++++++.................................+zvssstvy+yvvvuuxvwvsqoooonnnprtuussrvz+z+ywvuwzzz+++.ztonnnnnoopqstuxsolkjjjkllllmmnoppppqqqqqqqqppppppoooonooonmmmllkkkkkkkkgplkjjjjiijjkkllmnopqrssrssttttttttttttssrrrqqqpponmmmmmllllllllllllllmmmmmlllmmmmmmllllllllkkkkkmoonlkkkkkjjjjjjjjjjjjjjjjjji
(PID.TID 0002.0001) //    359 qqpomlllllllllllllllllllllllllkmsvw++zzz++..............+++++++++++++++++++++++................................+++ussstwx.yvvuuvx++zxutqoonoqqrruutsqu++z+zywuuvxzz++++yttyzzxurqqsuutxxrnnlkklllllmnnoppppqqqppppppppooooonmmmllmmmmnnmlkkkkihmlkjjjjjjijkkklmnopqrrrsssttttttttttttsssrrqqqpponmmmmllllllllllllllmmonmmlllmmmmmmmmmmmmlllkkjkkkmrqmkllkjjjjjjjjjjjjjjjjjii
(PID.TID 0002.0001) //    358 rqqpnlllllllllllllllllllllllmkjjoqx+zzxxyz+............++++++++++++++++++++++++.................................+zusrstwz.xvvvvvyywv++.ysqptsqqstutqosz+zx+zyvuvwyz++z+yyz....zxvvssuwyzyvsqonmmmmmmmnoppppqpppppppooooooonnmmoqrssrrssqqpppqokikkjjjjjkiikkkllmnopqqrsstttttuuutttttsssrrrqqqponmmmllllllllllmllllmnunmllllmmmmnmmmmmmmmmllkkkklmuzpllkkjjjjjjjjjjjjjjjjjii
(PID.TID 0002.0001) //    357 rqqonllllllllllllllllllllllnmkjikqwy+zwvwyz+............+++++++++++++++++++++++++.............................+++zurrstw.++zwxvxzy+..++zwttsqqrtuutqmovxyzzzyvwyzzy++++...........yuvyxzz.xvutrqponnnnoooppqpppppppponnoonoqqsuvvuutttsrrstttrrpjigghiijigjlkllmmnopqrssttttuuuuutttttsssrrrqqpnnmmmmlllllllllmmllllmnmlllllmmnotmmmmmlmmmlllkkkllpusmlklkkkkjjjjjjjjjjjjjii
(PID.TID 0002.0001) //    356 qqpnmllllllllllllllllllllllnlkjiimvy++xvvxz+...............+++++++++++++++++++++++..........................+.++zwtsstuz....zvw.....+zzyvutsrqrtsttrolpxxyz+yxyzzzyy+.+...........zww+xyx+.zywwvvtrqpoooopqppooooqpnnmnqqsvyuuvtuuuvvuttsuuuuuvxtomkhhgggggllllmmnnoqrstttttuuuuutttttsssrrrrqonnnmmmmmlllllmmomllllmmmlllmmmmnonmmmmmlmmmmllkkkkklmsrlkmqmnlkjjjjjjjjjjjiii
(PID.TID 0002.0001) //    355 ponlllllllllllllllllllllllmpmkjiijrv+.yvvvyz...............+++++++++++++++++++++++..........................++++zvtssuv.....zz+....+z.+.zxxvsrrrrrssqorz+zxxzzyyzzzz++.+..........+yzzzyxxzzzzzz+zywuqpoopppoooooonnnossvvzzwvvttttuuuuttuvvuuwwztsrqomjhggillmnnooprstttttuuuuuuutttttssrrrqpoopponmmmmmlllmlnllllllmmmmmmmmmmmmmmmmmmmmmmmllllkkklpysllsuwokjjjjjjjjjjjiii
(PID.TID 0002.0001) //    354 omllllllllllllllllllllllmnoqmlkjiilrx++yvvwz+..............++++++.++++++++++++++++..........................+++zxusstvx..........++zx++++z++zyxvvusrrtv+..zzxwwyzz++++++++........+yvwwz++zzz+++..++zwrpqppppopooqrqrtsstvyyxxyuuuuvvvuuvvvvvvvvzyxuwuspmkhgilrsrppqrsttttuuuuuuuuuttttssrrqqpopqqpnnnnmmmllllmllllllmmmnnmmmmmmmmmmmmmnnnnmmlllllkkmtspnmpnpljjjjjkkjjjiiii
(PID.TID 0002.0001) //    353 mnllllllllllllllllllllllollmlkkjjiiouyz+xvvxz+.............+++++..++++++++++++++++.........................++++yvtsstvw+.......+++ywvx+++z++.+++.++zwuuwywwuvxyzz..+++++++........+zxxvvy++++++.....+zyusrqpponnosqtrrstuwxxxxwwwvwyzzyxxxxxwvvvvwxvwvutqpljhlvztppqssttttuuuuuuuuutttttsrqqqppqqqpnnnnnnmmlllllllllmmnnnnnnnmmmmmmmmmmnnnnmmmlllllklmlqumkllkjjjjjjjjjjiiii
(PID.TID 0002.0001) //    352 lmlllllllllllllllllllnlllmkklkkjjkiiouvx+wvvy+...............++++.+++++++++++++++++........................+++++wusstvz.........+zxutzzz+zvwsooopyvtttsrpoootxxyzz+++++++++......++zyzwwvxy++++.......++wvtqpqnnnpopqrssuvvvxxxxxyz++.+zzyxvvvvvwwwwwvuttsrnlkpuqppqsstttuuuuuuuuuutttttsrqqqqqrrqpnnnnnnnmlllmmlllmmmnnnnnnnnnnmmmmmmmnnnnnmmmlllllklmlqolkkjjjlkkjjjjiiiii
(PID.TID 0002.0001) //    351 ononlllllllllllllllllmlllllllkjjkljijptvyzwvwz................++++.++++++++++++++++.........................+++++yttuv+..........zwtttutpmkkjjlkistnoooppmmpqsvuvxyzzz+++++++++++++zyywvvwy+............++zwuvsqpopoqrssuvuvwxwwxyz+zzzzywvusutuwx+zxwvuuvusrrplnopqrssttuuuuuuuuuuuttttssrqqqrrrqponnoonnmllmonllmmmnnnonnnnnnnnnnmmmmnnnnnmmmllllkkkklmspllkjjkmljjjjijkii
(PID.TID 0002.0001) //    350 oppomlllllllkkkkkllllllllllllkjkllklikorvzzwwy+.............+...++..+++++.+++++++++........................+++++++xtvz......++.++.wsrqqoljiijkomjnqmllmpopsvxwwvvuvwvwzz++++++.....++zvvvyz.................+zyvsrooqqtttttuvvvvwwyzzyxyuutsssstwwz++zxvvyvtuvspmoqrrrsttuuuuuuuuuuutttttsrqqrrsrqpooooonmlllmnmmmmmnnnooooooonnnnnnnmnmnnnnnmmmlllkkjkkloplntkjjjjjjjiiiiii
(PID.TID 0002.0001) //    349 pppomllllllkkkkkklllllllllllkjllmllliikotx+zxxy+.................++.+++++..++++++++++......................++++++++wu+.....+++++..+wspomkjiikkjlkppptuutswzz+++++zzzxwvxz+.........++zxwx+......................zxvsrsttttttuvvtuuxzxxyxwvvtssstutuuvyzywywtyvrqpoprrrsttuuuuuuuuuuutttttssqqrssrrpoooppnmmmmmmmmmmmnnnoooooooooonnnnnnnmmnnnmmmllllkjjjkllkmpljjjkjjiiiiiii
(PID.TID 0002.0001) //    348 oonnllllllkkkkkkkllllllllllljjklmmmljhhkovy+yxyz..................++++++.++++++++++++++++.....+...........+++++++++yu......+zz.....+zspoliikljjjmqyz.+yww++........+zxxwwyzz....++...+zx+.........................+zyvvvtvvtttutttuvvvvwxxwutttttsssuwxyzywvyuuurptussstuuuuuuuuuuuutttttssrrsssrrqpoooqnmmnonnnnnmnnnoooooooooooonnnnnnnmmmmmmmmlllkjjjjkkjkllkjjjjjiiiiiii
(PID.TID 0002.0001) //    347 onnnlllllkkkkkllkllllllllllkjjjklmmlkihhkquz+yyy++...............++++++++++++++++++++++++++++++++++........++++++++xuz.....+xz.....++zupliikkjjjko....+tyyz+zxy+yy..+zxxwvvx+...+....+++.............................++zyuxxuuttsstttuvvxyxuttttssssstuuw+ywvuvxsqptyutttuuuuuuuuuuutttuttssrssssrqqppppnnnopnoononnnooooooooooooonnnnnnnmmmmmmmmllkkjjkjjjjkkjjjjjjjiiiijji
(PID.TID 0002.0001) //    346 ooonmllllkkkkkllkkllllllllljjjjjllmlkjjhimquzzyyz++..............+++++++++++++++++++++++++++++++++++.....+.++++++yvuuvxz...yvz....++zzzqmijjlkjjjku...zrpx+zzwrpppwz.zzxwvuuz+.+++......................................+zzyzxttsssttuvvvwwutttttssssttstuxzwtwusrssvtttttuuuuuuuuuuuuuuuttssssssrrqqqqpppqqpoooooooooooooooooooooonnnnnnnnmmmmmmlkkjjjjjjjjkkjjjjiiiiiiiihh
(PID.TID 0002.0001) //    345 qqpnmllllkkkkkklkkkkkkkkllljjjjkmlklkkkjikosuzzxxz+..............+++++++++++++++++++++++++++++++++++..++++.+++++zvuttuvy...+vw+.....zzyulikmmkjjkjlrxvxrprvorrqnnnnrxzzywvvuw..+++++......................................+.zwutsssttuuvvvvvuuttttssssttuuvx+xssvusqrrsttuuuuuuuuuuuuuuuuttsssssssrqqqqqqqrqpooooooooooooooooopooooonnnnnnnnmmmmllkkjjjjlmkjjkjjjiiiiiiiihhh
(PID.TID 0002.0001) //    344 qpnmllllkkkkjjkllkkkkkkkllkjjjjmmljlkllkkikpry+yxxz+.............++++++++++++++++++++++++++++++++++++++++++++++zwvttuuvw+..zvuy++...++zriiklkjjlljnmjjnropqmortnnurkprvzxwvwvyy+zxxy+........................................zwutsstuuuvvvvvvuuuttttsttvzyzyy+wqxvtsqqsttuuuuuuuuuuuuuvvuttsssssssrrqqrrrssrqpoooooppppppppoppppoooooonnnnnnmmmmlkkjjjjmonkjjjjiiiiiiiiihhhh
(PID.TID 0002.0001) //    343 mlklkllkkkkkjjklmkkkkkkkklkjjjknnkkmklljkhglpuzzwwyzz+...........++++++++++++++++++++++++++++++++++++++++++++++yvuuuuvyz+..zvtuz....++ymgjjkkjjllmonmmqoommsttsmtwrjjnptzxwxxvwxyutuy++.......................................zywuuuuuuuvvvvvvvvuttttttv...yw.yooqyvtqsttuuuvuuuuuuuuvwxutttsssssssrrrrrstssqppppppppppppppppppppoooooonnnnnmmmlkkjjjjjjkjjkkjjijiiiiihhhhhh
(PID.TID 0002.0001) //    342 lkjjkkkkkkkjjklllkkkkjjjkljjjjkmmjkmkllkjhggmrvzxvvyzz+..........++++++++++++++++++++++++++++++++++++++++++++++yvvuvvyz++..+ztux..++++zqiiikkkklooqsvuqooorsnmlnuwujhilowyxxxvsstsqty++++++.....................................yzxvvvvvvvwvvwyzwutttttv+..zv.xmlouwursxuuuvvvvuuuuuuuwwuutttssssssrrrrstttsqqppppppqppppppppppppppoooonnnnmmmllkjjjjjjjjjjnpjiiiiiiihhhhhhh
(PID.TID 0002.0001) //    341 kjjjjkkkkjjjjkljkkkkjjjjkkjjjjklljklkkjjjiggioruxwvwvwxz+........++++++++++++++++++++++++++++++++++++++++++++++yvxvvwy++...+zvuwz+++.++spokjjknqqpooonnpoqonnjkkmnomgegkryywwutssrqtz+++++++++...................................yxvwvvvvvvvvvyvvvuuuwyy+..xsyullnqvvsryuuvvvvxuuuuuuuwwvuttttssstsrrqrrtuttrqqqqpqqqpqpppppppppppppooonnnnmmmlkkjjjjjjkjljjkiiiiiiiihhhhhhi
(PID.TID 0002.0001) //    340 mkjjjjjkkkkjjlljkkjjjjjjkljjjjlmkjjljjjjjihggnqrvxwwvvvwx+.......++++++zzzzz++++++++++++++++++++++++++++++++++zyyzzxxy++...+zvutw+++++xtsusljkqpppqoooprppmqllkkknoohcdhluzyyxxtrprx++++++++++++.................................yvvwyxvvvvvvvvvvxzwvw+..+yqrvumnpqtysqrstvvvvuuuuuuuvy+vuutttstttsqqppqrttttsrrqqqqqqqqqqqqqqqqppppooonnnmmllljjjjjjjjjjjjjjiiiiiiiiihiiiii
(PID.TID 0002.0001) //    339 omljkjjjjkkjjlkjkjjjjjjjmljjjklllijjjjjjjjihginqrw+zxvuuux+......+++++++zzzz++++++++++++++++++++++++++++++++++yz++zzyy++...+wussw+++++zwzuwyqkloooqnorssuvsqlljjkmrrjccehuyzzzzwqpu+++++++++++++++..............................+xwvvwzwyxyyyywxz+zzyz....yqoqrnputu+xtqqsuuuuttttuuuvy+zvuuttstttrqppoppqrtttssssrrqqqqqqqqqqqqpppoooonnmmllkjjjjjjjjjjjjkjjiiiiiiiiiikliii
(PID.TID 0002.0001) //    338 qomkljjjjjjjkkjjjjjjjjjjmkjjjkkkjiijiiijjjjihginqrwzyvuttvy+++++.++++++++zz++++++++++++++++++++++++++++++++++zzzzzyzyxz++++zuussvxvx+vrxyzxxwuolmnnnnosutomljkkjlnqriccdfvz++zytppy+++++++++++++++.................................zwvxwy.++..++.......+zwpkijmmouwwz.ztqqsttttsssttuuvyzwuuttssssrqoooooppqqrrssssrqqqqqqqqqqqqqppooonnmmlkjjjjjjjjjjjjkmtkjjiiiiiiiiimmiii
(PID.TID 0002.0001) //    337 qonmljjjjjjjkjjjjjjjjjjjkjjjjlkkiijjiiijjjjjihghmorvxwvtttvz+zy++++++++++++++++++++++++++++++++++++++++++++++yzzzzzzzyyyzzzzsvtstuuvwsooxzyyvusqqolmpppmmmjjjkkklpqphcbdguxz+zsros+++++++++++++++++..................................zyyxy+z+.........+xplfbcddfhnvwz.+yurqrsssrrrsstuuvvuuuutsssrqpooooooooooppqrrrqqqqqqqqqqqqppooonnmlljjjjjjjjjjjjjjjjnmkjkjjiiiiiiiiiii
(PID.TID 0002.0001) //    336 poomljjjjjjjjjjjjjjjjjjjjjjjjlkliijjiiikkkjjjihginqsuvwttttxzyx+++..++.+++++++++++++++++++++++++++++++++++++zyzzzzzzzzyyxxx+uuurssstxwrppswxwsrppomklllllkjjkllmnpqmfccfmwwzzuqpsy+..+++++++++++++++....................................zwwwzz++....+yskgcdgiihebdntz+.+zvrqqrrrqqqrrsuwuuuuttssrqppoooooooooooooooppqqqqqqqpqqqponnnmllljjjiijjjjjjjjjjjjlpplnrljiiiiiiiiii
(PID.TID 0002.0001) //    335 poomkjjjjjjjjjjjjjjjjjjjjjjjjkkkiikjiijklkjjjihggjmqstvvvutvywyz+.........+++++++++++++++++++++++++++++++++zzyyzzzzzzzyxwvvzttxsqrstvvuroopqpnrqpmllmllkkjkkklmpqsqieefisxvxxtrsx+++.+++++++++++++++.....................................xrrpsstwywxtqldcfijllkid-dkv++.+zwuqqqqqqqpqqsuttttttssrqqppooooooooooooooooopppppooopponnnonnmkjjiiijjjkjjjjjjjjlplkmpljiiiiiiiijj
(PID.TID 0002.0001) //    334 nonlkjjjjjjkkkjjjjjjjjjjjjjjkkkjiiljiiijlkjjjiihggioqstuxwutvxz++...........+++++++++.+++++++++++++++++++++zyyyyzzzzzzzywvvzrv+tqqttttsqooonnopoomlmsmlllkklnnotusjghgioyyxxvtvz+++++++++++++++++++++....................................yrlmlmmoomljhgghijklllkhc-bmz+..+zzysqpqqqpoopqrrsttttttsqqpoooooooooooooooooooooonnnnnmmmmmkkkkjjiiijjjjjjjjjjjjjklkjkljiiiiiiiikj
(PID.TID 0002.0001) //    333 mlmkkjjjjjjkkljjjjjjjjjkkjjjjkljiikjjijjkkjjjiiiihgjoqsstuuttwx++++..........+++++++......+++++++++++++++++zzyyyyzzz++zwvusvvy+wqqvvtsrooonnnnnnnmlmmmllmjkoppstpljkomoxzzyxvxz+++++++++++++++++++++++...............................+yvxxvronmjjggfgghiijkllllkjheberzz++++++wssssrqooooqrsttuttssrpoopooooooooooooooonnnnnnmmmllllkjjjjjjiiijjjjjjjjjjjjjjkkkjkjiiijjiiilj
(PID.TID 0002.0001) //    332 llkijjjjjjjjjlkkjjjjjjjljjjjjkmjiikjjijkkjiiiiiiiiggjmopqsrsstvxxvvz........................+...+++++++zz+zzzyyyyy+zzxtrrqpw+vxvvusrpopoonnnnnoonnnllnlkjkmuyrqnkjkqrqsz++ywxy+++++++++++++++++++++++.................................zvrtrpnjggfghiijjjklllmlllkjihciquyzyxy+zyxxwvtrponnprsttuuuttqoorpoooooooooooonnnnnmmmmllkkkkkjjjjjjjjjjjjjjjjjjjjjjjjlnjjjjkmlkigjjj
(PID.TID 0002.0001) //    331 lkiijjjjjjjjjjjjjjjjjjjjjjjjjkljijljjijkjjiiiiiiiihgggkmnpppqrtttsv++........................++++++++zzyxyyyyyzyzzyxwtqonnoqrwytwyyvrpoooonnnnnmmmllkkpnlmpswpmlmouruxz++zxxyz++++++++++++++++++++++++................................+ytpnmjggghjklllllllloqllllkjkjejrzvxxxx+++++zyvtspnnorstuvvvtrpopooooooooooooonnnnmmmmlllkjjjjjjjjjjjjjjjjkjjjjjjjjjjkmtlkjjmsrniiikj
(PID.TID 0002.0001) //    330 kjiijjjjjjjjjjjjjjjjjjjjjjjjjlljijljjijkjiiiiiiiiiihgfggilmnoqrstrtwvuxy+....+...............+++++++zyyxwwwxxyzzxywysqollllkloqnnptssrqpqoooonnnosuwzvuzyppqmlmovyxtx++.zxxxyz++++++++++++++++++++.......................++++..........+ztrrnjiijjlkkkkklllmnnmlllllolilpsxyzxxyyzyz+zwvvsqqrqsuvvvtrqpoopoooooooooonnnnnnmmmmllkkkjjjjjjjjjjjjjjjjjjjjjjjjjknplllmnromiijml
(PID.TID 0002.0001) //    329 kjiikjjkkkjjjiijjjjjjjjjjjjjjlkjijkjiiiiiiijiiiiiiiihgggefhknoprrsqqqrsvwz++++++++.................+yzxwwvvvvvxwvusqqpoollmllkjkmqsstpopvqoponnnoz+.xtruttsqmnpuzzyvyz+zxwxyzz++++++++++++++++++++.....................+.++++++.........+zxwtqoooppomnmkjjklllmlllmnoqsmkkov+z+zxwvvy++yxxuuyrqstvvvrrqooooooooooonnnnnnnnnnmmllkkkjjjjjkkkkjjjjjjjjjjjjjjjjjlllllnslkjjjjjj
(PID.TID 0002.0001) //    328 kjiijjjkjkkjjijjjjjjjjjjjjjjjkjjjkmjjiiiiijjjiiiiiiiihhggfeefjmppstrqpqqrtwzz++zzzz++..............+zz+yxwxxxwwzzzzxuvwssrtsromlmqwqtyusuwuwxvtluurrqrvsvyuuwvvwx+yyz++xvwyzzzz++++++++++++++++++...+++..+.........+....+++++++++++.......+zywvvwwvvstupkkjjlllllloqttqonmmpzz+++wvvwwz.ywxswvpprtvvtrqoooppppppommmmnnnooonmmmlkkjjjjljjklkjkjjjjjjjjjjjkljjlmlkkmulklkjjjj
(PID.TID 0002.0001) //    327 kjiijjkkjkkjjijijjkjkkjjjjjjjjjljkmjiiiiijjjjiiiiiiiiiihhggfeehloqsttrqqpppqstvuwxyzzzz+++++++++...++...zx+.+z++++++..zzzz+.zzwvxxwxy++++++++zxtutsvvzyyvvwxyxxxxxyzzzwvwyzzzzzzz+zz+++++++++++++++++++++++........+.+..+++++++++++.......++++++zz+++zztqonllllmmnqrtpnpoomousx+++yvwwvx+ywx+zqnprstwvqqrrrrutrnlkkkklmnooonnmmllkjjjjjjjjjjjjjjkkkjlkjjjjkjjlpljlllkmulkjjj
(PID.TID 0002.0001) //    326 kiiijjkkjkkjjiijjjkkjjiijjjjjjjjkjmjiiiijjjkjjiiiiiiiiiiihhggeehlopqsttrqpoooopqstuwyxyyyyyxyxyxyz++zz++zy+.+...++++..+++......+..+++zxxvtxsqrvz......zyvuttuuvxwvvwwvwxyzzzzzzzzzzz++++++++++++++++++++++++...........++++++++zzxy+.......+++++z++++++zxvtsrpmnoqsvsonoonootptzy++wvvvvy+wvzzsnnpqrrssttrrrpnmllnokjjklmmlmnllllkjjmjjjjjjjjjjjjjjjjjjjjkkjjkmkkmlkklxmkllj
(PID.TID 0002.0001) //    325 kiiijjjjjjkjiijjjkkjiiikkjjjjjjjjkljiiiijjjjjiiiiiiiiiiiiihhhgeefjmnprttsrqpoooppprvvtuvvvvvuuuuuuuwywzyzz+++....+zzyyxxyzzz+++zzyuusqqpppqqru......zyxvuttsssuttuvwxxyzzzzzzzzzzzz++++++++++++++++++++++++++..........++++++++yywwz+......+++++zz++++zyyzyywtpnssttqnnnnnoponpquxxwvwxvvzzuy+yuqnoprrusromlllllnnnnnmmnnnmjkllmllkklkjkjjjjjjjjjjjjkkjjjjkjjjjjkklkkklllllk
(PID.TID 0002.0001) //    324 kiiijjjjkjjjiijjjjjiiijmljjjjjjjjkmjiiiiiiiijiiiiiiiiiiiiiiiiihgfefilnpqrssrrqqppqqrqqpqrrqstssrsrpprrututuvuwxxvuttuvwxxxyywutssqqqppoppqruxxxxz+zywwutrqrstuuvwxxyyzzzzzzzzzzzz+++++++++++++++++++++++++++++........+++++++zzwvvvy++......++++zz++++zxxzzz+zvtvwwpooonnoppnnnnoqtuuy+zxz+yv++xtpmorqpmlmmnnllmnnnnoopoooookjkmmllllkkkjjjjjjjjjjjjjjjjjjjjjjjjjklkklklmmll
(PID.TID 0002.0001) //    323 jiiijjjjkjjiijjjjjiiijjlljjjjjkjiiliiiiiiiiiiiiiiiiiiiiiiiiijjihhgeeegkopqrssttttttvvtqpppopqqqqrrnnnnooqqqppqrrqqstvxwtttzywtsrqqqppopqrvsttuwzyxwvusssuuvxyyyyyyyzzzzzzzzzzzzz++++++++++++++++++++++++++++++++++++.++++++++zxvvuvwxz........++zz++++ztuzyyzxvxxuspoppoooonnnnnnnooqsvw+++zxxyztsmlqllonooposuuwvrqrqrqpppommklnmllllkkjjjjjjjjjjjjjjjjjjjjjjjjjkkllnllnwnm
(PID.TID 0002.0001) //    322 jiiijjjjjjiijjjjiiiiiijkkjjjjkljjhliiiiiiiiiiiiiiiiiiiihiiijjjjjjigfeeefjmpqqrssxxtuwsrrtsqqqrrqppnnmmmmnnnnnpppoqstvzmmmmqzywusrqqpppqsxtuuuxzxwvusssuxxyz+++zzzzzzzzz+++++++++++++++++++++++++++++++++++++++++++++++++++++zyvuuutuuuy+.......++zzz++ztsttvusssstroppqqoooonnnnnnnmnnpsy...zxwzxwnjkmnpqqpopsvwvwvsourqrpponmnkmnnmlllkkjjjjjjjjjjjjjjjjjjjjjkmlkklllkkllnn
(PID.TID 0002.0001) //    321 jiiijjjjjiijkjjihiiiiijkkjjjjjkjihliiiiijjjjjiiiiiiiiihhhiikllkllkihhfeeefiloppptvrsqqqqssrrruvtqpoonmmmmmmmnnnnnprsuwyyzmmmwyvtsrqqppquxvvuwyvutstuvwyzz+++++++zzzzzz+++++++++++++++++++++++++++++++++++++++++++++++++++++zzxuvvuttttuy........+zyxy+zwrqrrqqqqqqqrqooonnooonoooonmlllmqvyz+yuvwypglpoppqppqstwxxwvtvysqqtpnnnkkmnonmnllkkkjjjjjjjjjjjjjjjjjklllllklkkkllno
(PID.TID 0002.0001) //    320 jiiijkjjjijjkjjiiiiijjjlkjijjjjjiikiiiiijjljjiiiihhiiihhhiklllklmkiigfeeeeeffghkjjmklmoopppqsvwwtsrrpnnmmmmmmmmmmmnpqsuuwzplp+ywutsrrqtyzvvvytsstvwwyzz+++++++++++zz++++++++++++++++++++++++++++++++++++++++++++++++++++++zzyvuw+vtttssuy++.+.....zyxyzvssrrrsqqqqqqpoonnnnnopnmnonppopmlkkpvvuyyyrknpopooqprrruyxyxvrrsqrponnnnnjlnoonmmmmlkkjjjjjjjjjjjjjjjkkllllkllllmmoo
(PID.TID 0002.0001) //    319 jihgklkjiiijkjjiihhijjkkkjijjjjjiiliiiilnjkjjjjiiiiiiiiiiijlmlknvmihggffgfffeddeeddefhhifgnppqtvssrssrponnmmmmmmmmnnppoptxyyyxwxxywuvuw+yzyxttuvxxyyz+++++++++++++++++++++++++++++++++++++++++++++++++++++++++++++++++++++zzxvvwyvuuttsstuxxyyz+++.++zzywywvutqqqqqqqpnopoonqpptvutsstrpplkknst+++xrqqpppqqoqrotvxyxwtqqpqponooonmhjmnoooonmlkkkkkkkkkkkkkkkkkklllllllmpsopp
(PID.TID 0002.0001) //    318 jihgkljiiiijkjjihhijjjjjjiijkjjiikliiijmpnkkjjjiiiknjiiiiijkmmloukiggggggggiihlihfghhhgghijhhikoppqrrrqoqqppoooooonoonnpstuvvvwyzzxxyyy+ywutuvwxyzzz+++++++++++++++++++++++++++++++++++++++++++++++++++++++++++++++++++++zzywvwwwvvvuutsssttuuvwy+++++++zyxyxwsrqqqsrqprqrqqpovwwvussrssvqonjknu+.+wrqopqrrnoopuwzwuutrqqqqooooponnnlllmopomllllkklllkllllkkkkklllllllntusqq
(PID.TID 0002.0001) //    317 iihhkkjjjjiiiiiiiijjjjiiiijjkkjjikmjijkospmlkjjjklkpkjiikkklsmllkihgghhhiiijkmoojijjiiijkklkihhffhillmmnnppppponnmnoolmnptvvvvwxwwwyzyzwutuvxxyyzzz+++++++++++++++++++++++++++++++++++++++++++++++++++++++++++++++++++++++zxwvwwwvvvuutssssssttuvwxyz++yxyyyyxyusrqtuuvvyxurpsxwvusrqqrtttroljilrwyzuoononlhilotxzzwttrqqqropppoopqqpomjlooonnnnmllmmmnonmllllllllllmmnqssrr
(PID.TID 0002.0001) //    316 iighjkjkjjhhiiiiijjjiijiijjllljjiknjjkooopnmljjkjkklkkiijomlkmqjjiggghiiiiijkkkjjkkkjjjklmmmmlkihhiiiffghhhhiiihhgggffhhimstuuuuuuvwyyvuvvwxzzzzz++++++++++++++++++++++++++++++++++++++++++++++++++++++++++++++++++..+++++zxvvwwvvvvutsssssssssttutvvyzzyxyz++zxvttuvwwvtqqpstvvusqqppqtttqnmlhejloolhfddehiigimsuvvwtrqsqrpqqppqsqqtrqnkmoqqqppoonopqqrrpnlllllmoqqqpoopqqr
(PID.TID 0002.0001) //    315 ihgikmlljjhhhiijijjjikjijjkllmlljlnjikmllmlmljjjjkjkjijiimqumupjihgghijjiiiijkkjkklkkkklnnnnoonlkkklmjgfefgfeeffgggijiikkknprsststtuuvwxxyyzzzzz++++++++++++++++++++++.++++.+++++++++++++++++++++++++++++++++++++++..+++++zwttvvvuvutssrssssssssssssssttvvvyz+++yyxwuwsrpppqtuutsrqqponsuwtpoolkheddcdfjkklkkjhhlpuxzvsrrrqqqqqqruttssrqommoqssrrurqrstwxvqonmmnqtvwwtrpqsss
(PID.TID 0002.0001) //    314 ihijlnmkjihhhiiiiiiijkjjjjjkmpmlkkmiijkjjjjikjkkjljkkjklqlqmkomkihhimooijjjjjjkklmllllmnoonnoonllllnmkiiiihihihghijjjjklnmnopqrrrrstvxyzzzzzzzz+++++++++++++++++++++...++++++.++++++++++++++++++++++++++++++++++++..++++++yussuuttttsrqqrrrrrrrrrqqpoppppooqtx++z+xxtyuppoqrtutssrqqpnnptuzwrpnnmkhhlmlmmnlllljgfktxx+vqrstrqqqqsysrqqqrqqomnptssuqpqrvzyxsssppoquxxvusstvws
(PID.TID 0002.0001) //    313 iiijlnljjihhhhiiiiiijkjkljjksunlkjljijjjiiiijmnloomkjjlmjkjjjkkjihiikmnklkjjjknmmnnnnnopqpnllnmllmmnnjjjiiiihiihhijjjjjkmoonnooppqsvxyz+++++zz++++++++++++++++++++++++++++++.....+++++++++++++++++++++++++++++++++...+++++xsqrssssrqppooooooopppoonnnmmnnnnnopsuvwutrqpppqrsttssssrqponnsuuwvronnmlmnljmlmllllkhbgqxvwvqrstqqqqqsvusqqqqqqtsnnrtzzxqpppsstxursqqqqtvuttttutv
(PID.TID 0002.0001) //    312 iiijlllijihhgiiiiiiijjmlljjkpynljklkijjiiiiijmmmlqnmljijkjiijkjihiiijnkkjjmmlllmnnnoopqqqqmloqomkklljjjjjjjiiiiiiiijjjjknoppooooprtvxzzz+++++++++++++++++++++++++++++++++++..........++.+++.+++++++++++++++++++++.....+++ztqqqrrqqpoooooonnnnnnmmmmmmlllmmmmllmopponnnpqrsstttsssssqpponnvvusqponnnnmllllllllllkeclruuutssrqqqqqqrrsqqqsrrzurponqsopppqqqrrrqqqqqqqtttttttuy
(PID.TID 0002.0001) //    311 iiijkjjiihhhhhiiiijjjlnrmkklnollkkkkijjihgghjllklrolkjiijiiikkkjhiijllkkknmlllllmmnooppppolmrqojijllkjjjjjiiiiiiiiiiijjllnrsprpqrtvwxzzz++++++++++++++++++++++++++++++.....+..............+..++++++++++++++++++++.....+++zsqpqqqppooponnnnnnnmmmmmllllllllllkklmnnnnoprstttttttsssssrrrrmqyvrpooonnnmllllllllllkeakpuuuustrqqrqqqqqqqqqqquvtttqponpqqqrrqrrqqssqqpqqrsttsstx
(PID.TID 0002.0001) //    310 iijjkjjihhhhhgiiiiiikmmsollllkkkkjkkijjjggghjllklqmlkkkljiiiijkihiijnmollkkmlllllllnmmmmljkmonkhhijkjjjjjiiiiihhhhhhiikkmossrtssttvwxyyzzz++++++++++++++++++++++++++++......................++++++++++++++++++++++.....++ysqqqqqqqqpponnnnnmmmmmlllllllllllllllmopoopqstuuuutttssssssssqnouzsqoponmmlllllmmmmlllibipuvvurssqqqqqpqqqqqqqqrvvvsqppqrqqqrqqqqqrtvrqpppprutsrrs
(PID.TID 0002.0001) //    309 iiikkjijihiiihiiiiiijlmpommmlllkjikkgijjggggikklmmllkkmnlmiiiiimjiiiikmnjjkklooonkkkllljijjjjihhhijjiiiiiiiiihhhhhhhhijknpqstttttuvwxyyzzzz++++++++++++++++++++++++....++++....+.++++...+..++++++++++++++++++++++....+.++ysrqrrqqqqqponmmmmmmmmllllllllllllllllmnooopqsttuuutttssrrrqrrqopsxtpppnnkllllllmnooopokdiqwvutqrsqqqqqqpqqqqqqqqqrtqqqrsuqqqqqqsurqqsuqpppprtsrqno
(PID.TID 0002.0001) //    308 hiilljijhijjjhiiiihghjlmqoutmkkjjijmgiiihggghjklmlkkkkmnljiiiijonoliljionmnomopqmkljiiiiiiijjjhiiiiiiiiiiiihhhhhhhhhhijkotssttttuwxxyzzzzzz+++++++++++++++++++++++++++++++++......++.+.+..+++++++++++++++++++++++.....+++ztrrrrqqqqqrqonmmmlllllllllllllllllllllmnoopqrsttuutttsrqqpoqqqoqstsoppnoonnmmmmnorsssrqkfqzwuststqqqqqqqqqqqqrrqqqqqqqwrqqqqusrrqqqrrrqqqpoqtrpppr
(PID.TID 0002.0001) //    307 iijlkiijiijjiiiiiihggijkmppsqljljikmhiijgggggiklllkkkkmmkihiihkmjijiinojjnrppommkjjihhjkiiijkmjhiiiiiiiihhhhhhhhhhhhhijlpttsttttuwyyzzzzzz+++++++++++++++++++++++++......................++++++++++++++++++++++++.......+zurrrqqqqrrssrqnmmllllllllllllllllllllllmnooqqrstttttsrpponoqqqqrsqoonnppoonnmnopsuvvvtsognywvvvttrqqqqqqqqqqqqqqqqqqqsttsrprssqqrqqqqqrssqpopppqrs
(PID.TID 0002.0001) //    306 iijkkiiiiiijiiiiiihgghjkmmmnnlklkijkhiiigggggikkkkkkjkllihhhggjmjjiijijhimolkkkkkiihhiiliiijkmliiiiihhhhhhhhhhhhhhhhhijnpqsssstttwzzzzzzzz+++++++++++++++++++++++........................+++++++++++++++++++++++........+zzsrrrrqqrstutsqonmllllllllllllllllllllllmnoopqsttttsspnnnnpqqqqsrqonopqqqqpopqrtuvvwwwtpilsvvzzwtspoqqqqqqqqqqqqqqqqrsrqqqqqrrrssrrqqrsssssrrrrsst
(PID.TID 0002.0001) //    305 ijkkkiijiiiiiiiiiihghijjlklmjkloliikgiijhgggghjkjkjjjkliihgggggiiiiihggggiknrlmoniihhhiiiijjklmjljihhhhhhhhhhhhhhhihhikoqrsssstuuzyzzzzzz++++++++++++.+++++++++++..........................+++++++++++++++++++++........+++yvsrrrrrtzvvusqonlllkkklllllllllllllllllmmnopsttssrqommnpqqqqrtrqmopqqqrqqooqrrstuuuwwsjiptvz+xtroopqqqqqqqqqqqqqqqqqqqqqqqqqqrrrrqrrstttttttssst
(PID.TID 0002.0001) //    304 jjmjjijiiiiiiiiiiihghijkjjlkkopomiilgihijghgggjkjjjjjkliihgggggghikmhggghijlqppmjihhhhhiijjjkmllnjiihhhhhhhhhhhhhhhhhimpqrssssttx+zzzzzz+++++++++++++...+++++++++..........................++++++++++++++++++++++.......+++++yusrrrsuxvvutrppnlkkllllllllllllllllllllmnrsssrqppnmnoqqqqqqsrkpqrsppponnnoqpmlotttvumjpuvz+vtsqqqqqqqqqqqqqqqqqqqqqqqqqqqqqqqqqqrrstttttvtssss
(PID.TID 0002.0001) //    303 ijmijjigiiiiiiiiiihhiijjjkljklmnljikghiijhhgggijjjjjjkmiihggggggghkjgiihhiikpqoliihhhhhhijlklonmmjiihhhhhhhhhhhhhhhhhjlnppqstutvxzzzzz++++++++++++.......++++++............................+++++++++++++++++++++.........++++++ytrrsuvvvvuutrqommmllllllllllllllllllllmpsrrpnnnmnoqrrqqqrqlnqstpnnnmmllmnnlklotssronswvywvurqqqqqqqqqqrqqqqqqqqqqqqqqqqqqqqqqqrrrssstttttsss
(PID.TID 0002.0001) //    302 ijmjjkjgiiiiiiiiiiiiiiiijljikllkkjikghjiijggghgiiiiijklihgggggggghpihimihghjmqpkihhhhhhhikllmpoqokmlhhhhhhhhhhhhhhhiimoqqqtuvwwxzzzz++++++++++++++........+++++++.........................++++++++++++++++++++++.............+++zsstuvvvvvwvvtsrpoomlllllllllllllllllloqrqonmlmnoqrssrqqsqorstpnnnllllllnnmllnqrrrqrzxwsqusqqqqqqqqqqqqqqqqqqqqqqqqqqqqqqqqqqrrssssssttttsss
(PID.TID 0002.0001) //    301 iknkjjjgiiiiiiiiiiiiiiijkkiikkkjjigiigjjijhgghghiiiijkjigggggggggjlghiiihgghjlkiiihhhhhhikmlloooololihhhhhhhhhhiiihiimopstuvwxyzzzz++++++++++++...........+++++..+.....................+...++++++++++++++++++++++.............+++uttuvvvwwwwwwvutssrpnmlllllllllllllllnqrqonmlonqrrsrrqrssqsrpnlllllllmooonmnnnmoolr+zztqsxsqqqqqqqqqqqqqqqqqqqqqqqqqqqqqrqqqrrssssrsssttssr
(PID.TID 0002.0001) //    300 ikmljjigjijjiiiiiiiiiijkjiiijkjjjigihhijiihgggihiihijkigggggggggghggghhghgghiljiiiihhhhhilnmljklkjmiihhhhhhhhhiiiihhikortuuvwyzzz+++++++++++++++.........++...+.+.......................++..+++++++++++++++++++++.............++zuutuvwwwwwwwwwvvvvusqpnmmmmllllllllklmoqqppnpnprrrrqqqqrqqqpnlllllllmnnnnmnnnmlljjp+++vqtztrqqqqqqqqqqqqqqqqqqqqqqqqqqqqqqqqrrsrrssssssssrs
(PID.TID 0002.0001) //    299 ilnkijhhjijjiiiiiihiijjjiiiijjjjjjgihhiiijiggghiihhhiihgfggggghgggggggggghhhiiiiiiiihhiijkmmkjjjjkliihhhhhhhhiiiihhhkorssuvwxyzz+++++++++++++++..........+................................++++++++++++++++++++++..............++zuutuvwwwwwwwwwwwwwvuuusqponmlllllllllnoqqoopnoqrrqqqqqqqpqonmlllllllmmmnnnooppqppps+.+xvzzurqqqqqqqqqqqqqqqqqqqqqqqqqqqqqqqqrqqqrssssrrrsrq
(PID.TID 0002.0001) //    298 iknjiihhjjjjiiiiiihijjjiijiijjjjjigikgiiiihggggghghhhggggggggghggggggghhhhihhhijiiiihhiijlnomjjjiiiihhhhhhhhhiiihhghkpsstuvxyzz+++++++++++++...............................................+++++++++++++++++++++...............++wttuvxwwwwwwwxxywwwvwvvvusqnmlllllllmopqqopppqrrqqqqqqrnqonmllllllllllnnlnoooqqqqppx++yuuytqqqqqqqqqqqqqqqqqqqqqqqqqqqqruqqqqstsssssssrsttr
(PID.TID 0002.0001) //    297 ilmhiiiikkjjkjhiiiijjjijjiijjjjjjigijihiiigggggggggghggggggggggggghggghhhiiihhhiiiihhhijjlnnnmnmljiihhhhhhhhhiiihghinrttuvxyzz+++++++++++++++...............................................++++++++++++++++++++...............++xuttvvwwwwwwwxyzxwwwwwxwwvtpnnmmmmmlmnoppoqqrrrrqqqqqrqoqnmlllllllllllmkkmooqpppqvpuxzzuuytqqqqqqqqqqqqqqpoprqqqqqqqqqqusqrtussrrsssttstuww
(PID.TID 0002.0001) //    296 jmlgijjikkjjljhiiiijjjjjjiiijjjjjighilgijihggggggggggggggggggggggghgggghhiiiihijiihhhhiijkmnppqqpmjiiihhhhhiihhhhhikrtuvvwxyzz+++++++++++++++..................................................+++++++++++++++++...............++zvuuvvwwwwwwxyyzyyxxxxxxxwuropoonpomnonnooqrsssrqqqqqqponmmlllllllllnnklmmnoonmmmnorsxzxwyvsrqqqqqqqqqqqqqqqqqqqqqqqqqqtqrssqqrrrqssvwwyyyz
(PID.TID 0002.0001) //    295 jllgijjikkjjjiiiiiikkjjjihiijjiiiiggikgijhhggggggggggggggggggggggghgggghiiiiihikiihhhhijjkloqrrrqoomlkihhhiiiihhhikntuvwxyyzzz++++++++++++++++...................................................++++++++++++++................+++yvuvvwwyywwwxyzzyyyxxxxxwvtrqpppqqooppoopqrssrsqqqqqqpnmllllllllllnplklmlllmllllllmns++++wtsrqqqqqqqqqqqqqqqqqqrrqqqqqrsstrstssrwyzz++.++z
(PID.TID 0002.0001) //    294 jmnhjjjijjjjjijiiijlkjjjihhiiiiiiihggjghiihhgggggggggggggggggggggghgggghiiiiihiihhhiiiijkklmprssrppprsqonknnqljjjnrtuvxxyyzzzz+++++++++++........................................................++++++++++++++.................+++wvuvvxyxwwxyyyyzzyyxxxxxvttsrqqqqpprqrqqqrrrrqqqqqqpqnllllllllllmnmmmlllllllkkklllmowyz+yusrqqqqqqqqqqqqqqqqqrssqrqqrtrpnnpsuxzyz+...+++z
(PID.TID 0002.0001) //    293 jmliikiijjjjiijiiiklkjjihhhiiiiiiihggjggiihhgggggggggggggggggggggggghgghiiiihhihhhhiiiijlllmmrttsqqsuuttroqrsoppmptvwxyyyzzzzz++++++..++++............................................................++++++++..................+++zwvuvwwwwxyyyzyzzyyyyyyywuutsrrrqqqrtsqrqrrrqqqqqqqpnnmlllllllllmnllmllllllllllllllnqtwy+wtrrqqqqqqqqqqqrqqqrstrrssttrqqpstz+yzzz+++yyzxw
(PID.TID 0002.0001) //    292 jmkiijjjjiiiiiiiijlljjjiihhiiihiiiiggiigiiigggggggggggggggghhhhhgggghhhhhhhhhhihhihhiiijkkllnsttsrssttrrpqrsrrsrosuvxyyzzzzzz++++++....+.+............................................................++++++++...................+++ywvvwwwwxyyzzzzyyyyyyzzwvvutsssqqqsutssqqqrrqqqqqqrnnmmmmllllllmmlnomlllllllllllkjklnrwzxusrrqqqqqqqqqqqqqqrsrqrstusrrqssy+zzzzy+xyvuuvw
(PID.TID 0002.0001) //    291 jmiijjjijihhhiiijklkjjjhihhiiihiiiigghjgiiggggggggggggghhhhhhhhhhggghhhhihhhhhiihihhhiijjkklmqttttsssqqqqrsssssrqtvwyzz+zzzzz++++++....+..............................................................++++++++...................++++xwvwxxzyyyyzzzzzzzzz+ywwvuttsssqqsuvwtrrqqqqqqqqqomnmmmnmmllmmmmlnpsqnllnmlllllkkkjkqwzxwussqqqqqqqqqqqqqqqqqrrssustsrrsy+++++zzxvxssux
(PID.TID 0002.0001) //    290 jljijjiiiiiiiiijkjjjjjihihghhhhiiiiggghgihggghggggggggggghhhhhhhhhhhhhhjiihhhiihghhiijijjkkklpttttssssrrrstttssssuvxz+zzzzzz+++++++.....+................................................................++++....................++++ywwwwxzzxxyyzzzzzzzzwvvvvutsssrqqrsuvtssrqqqppqrrommnnnopppnnnoooopqtnllllllllllljhntz+ywtstrqqqqqqqqqqqqqqrssssstturrqrv++....zyyussst
(PID.TID 0002.0001) //    289 jljijjiiiiiiiijlkiijjjiiiighhhhiiihgghhhihgghigggfggggghhhhhhihhhhhhhhhhhhhhiihhhiikjjjjjkkllpsttttuutttvuuvvutuvwxyzzzzzzz++++++++...............................................................................................+++zywwwwyxxxyyyzzyxxxwvvuuutsssrrrrrstttsrrqqpopqrsonnnnppqqqpnnoqxtpponlllllllllllkfmtwzywusvtrqqqqqqqqqqqqqrssssssstprrqtz+....+yyzsstu
(PID.TID 0002.0001) //    288 kljjjjiiiiihijklkijjjiiiihhhhhhiiiiggghihghgihgggfgggghhhhhhhhhhhhhhhhhhihhhiiiiiijkkkkjjkllortuuuuuuuuuvvvvvvvwxyzzzzzzzz++++++++++..............................................................................................++++zyxwwwwwxxyxxxwwwvvvuuttssssssssttsstrqqqpooqqqpnnnnopqqqqqppos++tpppommmmmmllllkilpuwxwttuurrqqqqqqqqqqqqrrrrrrrssqprqrv+...+zwxwsttu
(PID.TID 0002.0001) //    287 jlkjjjiiiiihillljiiijiiihgiiiiiiiiiggghiggggigggggggghhhhhhhhhhhhhhhhhhhhhhhiiiiijkkllkkkllprsvvvvvvuuuvvwwwwxxyyzzzzz++++++++++++................................................................................................++++++zyxwwwwxxxxwwvvuuuuttsssssstttutussrqpppopsqttnnnopqqqqqqqpps++zrprtpnmmnmlllllkilsyxwwvuusrqqqqqqqqqqqqqqrrqpqrstqrqqtvwyzwuutsqurs
(PID.TID 0002.0001) //    286 jljjjjihiiiikllkjiijiiihhghhiiiiiihgggggggghhgggggghhhhhhhhhhhhhhhhhhhhhhhhhiiijjkklllkklmmqstvvvvvvuuuvvwxxxyyzzzzz+++++++++++++..................................................................................................+++++++zyxxxxxxxwvvvvvvvutssssrssttssttssqqppppqrwupooopqqqqqqqpprz++trtvqoonnmmllllkjkrxxyywttsrqqqqqqqqqqqqqqqrqqrqtsrsrqruwwxwvtsqpxtv
(PID.TID 0002.0001) //    285 jkijjjihiiijkkkjiiiiijiihhhhiiiiihgggggggggggggggggggghhhhhhhhhhhhhhhhhhhhhhijjjkllmmlmlmpqsstvvwwvvvuvvwxyyzzzzz++++++++++++++++..................................................................................................+++++++++zzyyyxxxxxwwwwxxvttssrrrrrqqrtstttrqqrqtzxrqpoqqqqqqqqqpquz+yssrqppononmllllkkpwxy+wtstrqqqqqqqqqqrqqqqqqqqqrrqsrsttsuwywrtqpqxt
(PID.TID 0002.0001) //    284 jjijjjiiiiijkkkjiijiijiiiiiiiihhhihggggggggggggggggggghhhhhhhhhhhhhhhhhhhhhhikjkjmlmmoqmprstuuvwwwvvvvvwxyzzzzz+++++++++++++++++...................................................................................................++++++++++++zzyyyxyyyyyzzxvutsrqqqqqpqqrrtttrqqsz++xtrqrrqqpppppprrz++wsrqqqqoonnmmllljovxyyxwrusqqqqqqqqqrsqqqqqqqqqqopqqqrrqv+xrrqqutts
(PID.TID 0002.0001) //    283 jiijjjjihiijkkkjjjjiiiiiiiiiihhhhhigggggggggggggggggggghhhhhhhhhhhhhhhhhhhiiijjllmnnnqqqsstuvvwxwwvvvvwwyzzz+++++++++++++++++++......................................................................................................++++++++++++zzzyyyzzzzyxwutsrqqqqpppqqrsssrqqv+++yurqsrqqqpoooopqw++ztrrqrsqonnnnllkilqwxyyxtvsrqqqqqqqqrrrqqqrqqqqqooqqrqqrwtqqqqrsqss
(PID.TID 0002.0001) //    282 jjijjjkkiiijjjjjjjjiiiiiiiiiihhhhhgggggggggggggggggggggghiiiiiihghhhhhhiiiiijkjkmonoprrsstuvwwxxwwwwwwwyz+++++++++++++++++++++..........................................................................................................+++++++++++zzzzzzzzyxwvtsrqqrqqppqstssrrrsy+++xusrtsrrqpooooooqy++wsrrrtwroonnnlkjilqvyzwtsusqqppppqqrsqqqqqqqqqqqqqqqqqssoqpoqqpqrs
(PID.TID 0002.0001) //    281 kjkjlkjkkiijjjjjjjjiiiiiijiiiihhhgggggggggggggggggggggghiiiiiiiiiihhiiiiiiijlkkjnnnoqstttuvwwxxxwwwwwwy+++++++++++++++++++++.............................................................................................................+++++++++++zzzzzzzyxxvusrrrrqpppqtsrsrrrtz+++yussvusuuqoooooops+++wsrrtzxroonnllkhikqwxwururrqqpppqqqqqqqqqqqqqqqqqqqrttpqrnpqppqqr
(PID.TID 0002.0001) //    280 kkmjllkkjjjjjjkjjjjjiiiiijjiiiihhgggggggggggggggghgggghiiiiiiiiiiiiiiiiiijjjjjljkllnptuuuvwwxxxxwwwwwx++++++++++++++++....................................................................................................................++++++++++++zzzzzzyxwvtsrqqqpppqrqrrrsswz+++yustwyxywtpoooooopu++zwtsvxwvtponmmmjfipwxywtsrqqqqpppppqqqqqqqqqqqqqqqqtsqprooppppqqr
(PID.TID 0002.0001) //    279 klojllllkjjjjjiijjjjjiiiiiiiiiihhggggggggggggggghhgggghiiiiijjjiiiiiiiiijjjjjjjjkkkmoqtvvvwxxxxxwwwwxz++++++++++++++.........................................................................................................................++++++++++zzzzzzyxvutsqqpppqqqrssstuyz+++yuttvwxzzxtpoooooopy+.+xvtuvyyxusoonlfhmuwxvsrqqqsqpoopqqqqqqqqqqqqqqqqrqqqoooooopqqqr
(PID.TID 0002.0001) //    278 jlnjkljmljjjjiijjjjjjiiijjiiiiihhggggggggggggggghhhhggiiijjjjjjiiiiiiiijjjjjjjjjjjjjkmruvwwwxxxwwwwxy+++++++++++++..........................................................................................................................+++++++++++++zzzzzywuxwrqppqrtrsssttuz++++zvttuvwz+zwvspoooooqz+.++xttw+yxyrpnlifmruvutssrrqppopqqqqqqqqqqqqqqqqqqstpppoooooqqqs
(PID.TID 0002.0001) //    277 jlmjklklljjjjjjljkjjjjijjjiiiiihhggggggggggggggghhhighijjjjjjjjjiiiijjjjjjjjjjjjjjjjjjmruvvvvwwwwwxyz+++++++.................................................................................................................................++++++++++++++zzzyxvuwyqppqtussttuttx+++++zuttvwzzyyyyupooooorz...+xttuvv+zuqnkfjostvvvssqqpppqqqqqqrsrqqqqqqrqrqroopppooopppqt
(PID.TID 0002.0001) //    276 jlmkklkkljjjjjjjkjjjjijjjjjiiiihhgghgggggggggggghhhhghjjkllmmmkjjjjjjkkkjjjjkkljhjjjjjjmouvuvvwwwxyzz+++++....................................................................................................................................+++++++++++++++zzywuuwrppqvvttttttuxyyz+++wutuxxxxxyzzsooonnory..++xttttxzxwrokinrttvusrqqppqqqqqrsrrrqqqqqrrtspnoooopooooopqt
(PID.TID 0002.0001) //    275 kllkkkkkljjjjjjjjjjjjijjjjjjjiihhgghgggggggggggghhhhhikllnopppnkjjjjkkkkkkkklokjikmljjjjkorstvvwwyzz+++++......................................................................................................................................++++++++++++++zzzxvuxrppquuvvuuuuvxxyy+++zuttwwwwwwxyvqpoonnosy+..+zvttttv+yupklpsrssttrqqqqqrqrqrqrqqqqrttsqonoonnnnnnnooort
(PID.TID 0002.0001) //    274 klllkkjkkjjjjjjjjjjjiijjjjjjjiihhgggggggggggggghhhihijlnnpqrrqokjjjjkkllllklomkjjkljjjjjjkmmpuvvwyz++++........................................................................................................................................++++++++++++++zzzzywvtpppqsvxvvvvvwwvwxz+zuttuvvvvvvxxvrpoonoprwz..++xtttuxzwvpkmpprttsrqqqqqqqqrrrrrsrrtsrqpononnmmnnnoooors
(PID.TID 0002.0001) //    273 klllkkkkkjjjjjjjjjjiiijjjjjjiiihhhggggggggggggghhhhijkmrrrsssroljiiijlnomlmmqlkjjjjjjjjjjjklosuvwz++...........................................................................................................................................+++++++++++++++zz+zxutppqqsvwvvvvvutttuvzytttuvvvvvvvvvuqooonopqrw+..+zuttuwxwtljkmorssrrqqqqqqrvssutussstooponnmmmmmmnooopqs
(PID.TID 0002.0001) //    272 klkkkkkkkjjjjjjjjjiiijjjkkjjiihhhhgggggggghggghgghijjikpsstttsqnjiiijoqppommnlkjjkljjjjjjjkmquvwx+++............................................................................................................................................++++++++++++++z++zxwsqvvttuvvuuuttssstuwutstuvvvvuuuvvvuqpoooopqqv+..+zwttuwxvsmhklosssttqrqrtuuwtrqrrrrqnnnnnmmmmmmmnoooprs
(PID.TID 0002.0001) //    271 jkjkkkkkjljjjjjjjiiiijjjjljjihhhhhhhhihgghhhhhgijiijjjiimpsstsqojiiiipqqqqqplllljkkjjjjjjklnquvwy.++............................................................................................................................................++.+++++++++++zzzzyxvqrrqtuuuttttsssstwxutttuvvvvuuuuuuusqpoooopqru++++zwttuwxxrnfhlopsvxuvutssrpnnopqpnlmnnmnmmmmmnnoqooqrt
(PID.TID 0002.0001) //    270 jkjkkkkkkljjjjjjiiiiijjjkkjjihhhhhhhhhhhghhhhhimiiiijjjiikpqqrqokjiiinqpoqqpmmllklkkjjjjjkmpuwwy+................................................................................................................................................+..++++++++++zzzzyxvqpqrstuutttssssssvyutttuvwwvuutttttsrqpoooopqrvz+++zvuuvxutpnjhkmorrppqnlkjnpmkjllllmmmmmnnmmnnnooopqrt
(PID.TID 0002.0001) //    269 jjkjkkkklkjjjjjiiiiiijjjjjiiiihhhhhhhhhhhhihhimmjiiiiiijjjkmonmkjjiiijooonnnnnnmmljjjjjjkmotvxxz+....................................................................................................................................................++++++++zzzzzzxvtprttttttttssssssuwtttttuvvvutttttttsrqpooopqsuw++zzwvwwvuwqpljhiklnnjpnmjhikkmmnmlmmmmmmmmmmnnnoopqrrs
(PID.TID 0002.0001) //    268 kjljkkkklkkjjjjiiiiiijjjjjiiiiihhhhhhhhhhiihhjkkkjiiijjlnmmkjjjjiiihijlnnnopqqpnmkjjjjjkmptvwxyz+....................................................................................................................................................++++++zzzzzzzzywtptwuuttttttssrrrswwttttuvvvutttssssssrqooooqrtvxyxxyyvvvvvrqomnjgfffefikkmlllnnmmmmmmmmmmmmmnnnoopqqrs
(PID.TID 0002.0001) //    267 jkljkkkkklljjjiiiiiijjjjjiiiiiihhhhhhhhhhihhijhljjjjiiiiklnljjiiiiihijlnnoqrsrpomkjjjjkmptwwxyz++....................................................................................................................................................++++++zzzyyyyyxvrquwvuttttttssrrrsvyutttuvvvvuttssssssrqooooqrsuwxxxyyuuvvvuqpnnomllkjkkllmnmmmmmmmmmmllllmmmnnnoopqrrt
(PID.TID 0002.0001) //    266 jkljjkkkkljjjjiiiiiiijjjiiiiiiihhhhhhhhhhhhhigjlkjjjjihhhjkkmkihiiiiikmooqrssrppokkkklmpsvwxyzz++....................................................................................................................................................++++++zzyyxwwwvupqstuuttttttssrrrssuttttuvvvvvutssssssrqoooopqrsuxxxxwuuuuvuqrpnnnllllmllllnnmmmmmllllllllmmmmnnoopqrss
(PID.TID 0002.0001) //    265 jjljjkkkkljjjiiiiiiiijjiiiiiiiihhhhhhhhhhhhggimlkkkjjiihhiiiilihhiihilnoqrrssrppplllmnpruwxyzz++......................................................................................................................................................++++++zzyxvvvvqnnpqsttttttsssrrrswutttuuvvvvvvutssrssrqpooooqrrtwxxxvutttuvsronoomllllmmmmmnnmmllllllllllmmmmnnooprrst
(PID.TID 0002.0001) //    264 lkkkkkkkkljjjjiiiiiiiiiiiiiiiiiihhhhhhhhhhgiimllllkjjjiiiiiijklihiihilnpqqrsrppollmnpqstvxxyz+++.........................................................................................................................................................++++zywvxtmmlmnpqstssssssrrrrszyutuuvvvvvvvvutsrrrrqpoooopqrsuwwvvuttttutonoonmlllllmmmmnnmllllllllllllmmmnnoorrstt
(PID.TID 0002.0001) //    263 lljkjkkkkljkjjiiiiiiiiiiiiiiiiiihhhhhhhhhhijimllllkjjjiiiihhijkkjjjiiopqqqrrrqpnmmnoqtuvwxyz++++.........................................................................................................................................................++++++yxpnlkkmnmnpqrrssssrrrrstuvuuuvvvvvvvvvutsrrrrqoooopqrrtwwvvutttuuuqnqsmmlllllmmmmmmlllllllllllllmmmnnooqsttt
(PID.TID 0002.0001) //    262 kljljkkkjljkjjiiiiiiiiiiiiiiiiiihhhhhhhhhiiikmllllkjjjiiiiiiiiiillkjiilnpqqrrqqpnmnoqtvwwxyz++++..........................................................................................................................................................++++++vomkklmmlloqqqrrrssrrrsuwvvuuvvvvvvvvvvusrrrqpoooooqqruxwvwutttuuuuoonmlllllllllllllllllllllllllmmmnnoorsttt
(PID.TID 0002.0001) //    261 jllkjkkkkljkjjjiiiiiiiiiiiiiiiiihhhhhhhhhiiinmllllkjjjjiiiijjjiilonkjiiilpqrrqqonnnoqtvwxxyz+++++..........................................................................................................................................................+++++yqlklonlllmprqqqrstrrqswzyvuuvvvvvvvvvvusrrrqqooooopqsuwwvuvuttttttqnmmlllllllllllllllllllllllllmmmnnopttttu
(PID.TID 0002.0001) //    260 jklkkjkkjljkjjjjjjiiiiiiiiiiiiiiiiiiiiiiijimpnmllkjjjjjiiijjjkkiiknlljihinqqppponnopqtvwxyz++++++..........................................................................................................................................................++++++vnmmppllllmopppqttsqqsv+zwuuvvvvvvvvvvusrrrqqpooooqrstwwvttuuttsstsonmlmmmlllllllllllllllllllllmmmnnopstsss
(PID.TID 0002.0001) //    259 jklkkjkkkljjjjjjjjjjjjiiijiiiiiiiiiiiiiijlpsrnmllkjjjjjjjjjjkmljiijljiihiilooooonnopqsvwxyz+++++++...........................................................................................................................................................++++xrmmrlllllllmnoqssrqqsvzxvuuvvvvvvvvvvutrrrqqqooooprsuvvvsstuttsrrsqnmmmmnmllllllllllllllllllllmmmnnpqsssrs
(PID.TID 0002.0001) //    258 jlllljkkkllkkkjkkkjjjjjjjjjiiiiiiiiiiijkortutomllkjjjjjjjjjjklkjjjjiiihhhhijjkmnnnopqrtvxyy++++++++..........................................................................................................................................................++++yslllmllllllllnprrqqqswxuuuvvvvvvvvvvvutsrrrqqpooopqtuvvutssttsrqqsrommmnnnmlllllllllllllllllllmmmmnoprtsrs
(PID.TID 0002.0001) //    257 llllljjkllllkkkllkkjjjjjjjjjiiiiiiiiijjostttspmllkjjjjjjjjjjjjjjjjjjjjiiiihhhijnmnnoprtvxyyz+++++++..........................................................................................................................................................++++yrlllmllllllllmpqqqpqrsttuvvvvvvvvvvvvvutsrrqqpooooquvvvuvtrstsqrqsspnnmpoonmlllllllllllllllllmmmmmnoqttrrt
(PID.TID 0002.0001) //    256 llllkjjklllllkkkklkjkkjjjjjjjjjjjiiijjnrsrpppomllkkjjjjjjjjjjjjjjjjjkjjiiiihhhillmmnpqsuwxyzz++++++..........................................................................................................................................................++++zumlomlllllllmopqqppqqrstuuvvvvvvvvvvvvvtsrqqqppooopsvxvtuttqrqqrprppooppppnmmlllllllllllllllllmmmnnoqtsrrs
(PID.TID 0002.0001) //    255 llllkjjklllllkkkkkkkkkkjkkjjjjjjjjjjkmpqnnmllllllkkjjjjjjjjjjkkkjjjjijjiiiiihhhijlmmoqruwxyzz++.+++...........................................................................................................................................................+++yqllllllllllllnpppoopqrstuuvvvvvvvvvvvvvtrrqqppoooopswxwtsssrrsqpooooooppponmmmllllllllllllllllmmmmmoqtrqrs
(PID.TID 0002.0001) //    254 llllkjjklllllkkkkkkkkkkkkkkkkjkkmjjknooomlkllllllkkjjjjjjjjkkklkjjiiijjiiiiiihhhjkllnpqtvxyyzz+++.............................................................................................................................................................++zunlklllllllllmnqppooprwuttuuvvvvvvvvvvvvtsrqppoooooprvxwurrrrqrqqoooooppqponnmmmlllllllllllllllmmmmmnpsqqrs
(PID.TID 0002.0001) //    253 llllkkjjklllllkkkkkkkkkkkkkkkkjllklmnmoollkllllllkkkkkkkjjjlkkklkjiiijjiiiiiiiiiiijjlnosvwxyzz+++.............................................................................................................................................................++zvolllolllklllmopqqpoprurstuuuvvvvvvvvvvvutrqpoooooooqsvwuqqrssppppoooooonoononmmmmmlllllllllllmmmmmmnoqpqrt
(PID.TID 0002.0001) //    252 lllllkjkkllllllklllkkkkllllllkkklllnllpnlllllllllkkkkkkkjjkkklklkjiiiiiiiiiiiiihhhhikmnquvxyyz++++............................................................................................................................................................+++xollpllllkllmqpqqqqooqsqrstuuuvvvvvvvvvvtrqpppooooooqvxwtppqrsqpsqoooopopponoonnnonmlllllllllmmmmmmmnnopqrv
(PID.TID 0002.0001) //    251 lllllljklllnlllllllllllllllllklllmmlloqmlllllllllkkkkkkkkkkklllkjiiiiiiiiiiiiiihhghiilmoruwyyz++++.............................................................................................+..............................................................+++yrnlmpmllklloqqqrqqpooppqssttuuvvvvvvvvvtrqppoooooooqvxwtppqqqpppoqppqqoqsrqqoooonmmlllllllllmmmmmnnooopprw
(PID.TID 0002.0001) //    250 lllllkjklllmmmlllllllllllmllllllllllmpplllllllllllkkkkkkkklllllkiijiijjiiiiiiihhhghiijjkoruxyyz++++...........................................................................................++...............................................................++zvqmlwqlllllmpqqrsrpooopqrstttuvvvvvvvvvurqppoooooooqrvvsqpqqqpooopqqqpoprsrpoppopmmllllllllmmmmnnopqpopprw
(PID.TID 0002.0001) //    249 lllllkjllllnnnllmmllmmmmnnmllllllllmoqpmlllllllllllllkllllllllkjjjjjjjjjiiiiiihhhggiihijlnrvxyz++++.........................................................................................++++...............................................................++zxsnlmqqmlllnopprssqpoooprsttuuvvvvvvvvvtrqpoooooooopsvvuqqqqqppppqrrqqpoprsrrqpoonmllmmlllmmmnooopqqpopqtw
(PID.TID 0002.0001) //    248 mmmmllllllmnnnmmnnnnnnonoonmmllllmnoqrpmmllllllllllllllllllkkkkjjjjjjjjjjjjiiihhhghiihiijlptwxy++++.........................................................................................++++.+.............................................................++zwsnklovnlllmooprssrpoopqrtttuuvvvvvvvvvtqppoooooooopsvwurqqqqqqqqrrrqqqpqrsstrqpoommnsrlllmnmnoooppppoprtw
(PID.TID 0002.0001) //    247 mmmmlllmmmmnnnnoooooopqqpponmmllmnoqssqommmmllllllllmnnmllkkkkjjkolkjjjjjjjiiihhhghiihhiijmsvxyz++++........................................................................................++++++.............................................................++zurmllmwoklllmmoqssqppppqrttuuvvvvvvvvvvurppoopqqpooqtwwvqqqqqqqrrssrqrspqrrturqpppnnonmmnmnnnnooooooopqsuw
(PID.TID 0002.0001) //    246 nmmmmllmmmmnnnoppppqqrrqqppnnnnmnprtusqpnnnmmlllllllpoolllkjlkjkonljjjjjjjjjiihhhghiihhiijlpsvwy+++++.......................................................................................+++++++............................................................++ztomkknumklllllmnqrqqqqpqrsttvvvvvvvvvvvtrpoopqqppopqtvxyvqqqqqrrsssqqrrpqrswurpoonnnmnnnnoonnnnnnooooprsuv
(PID.TID 0002.0001) //    245 nnnnnmmnnmmnnopqqqqqrrrrqpppponnprtvusrponnnmllllllmlllllmjlljkjlkiijjjjjjjjiihhhghhhhhiikjlnrtwy++++.......................................................................................+++++.+............................................................++yromkklmmllllllmpqqqqqqqqrttuvvvvvvvvvvutrpoppooppppqrux+zsqqrrssssqqqrqpqrsuurpoonmmmnnnnnnonnnnnnnnopstvv
(PID.TID 0002.0001) //    244 oooooopponnnooqssqqrrrrqqqqqqoooprtvusqponnmllllllllmlllllkljjjjjjiijjjjjjjjiiihhgghhhiiiijjmpqswz++++........................................................................................++++...+.........................................................++ysolkklnolllllloqrrqtqqqrstuvvvvvvvvvvvusrpooopppppppqsuzzvsqrsssrqqqrrqqrrsturqponmmmnnnnnnnnnnnnnnnopsuwv
(PID.TID 0002.0001) //    243 ppppqrsqonnooprsssrrrrrrqqqqpooooqsutrqponmmlllllllllllllkkjjjjkmjjjjjjjjjjiiiihhhhhhiiiiijjjmqruyz+++.......................................................................................+++..............................................................+++xumlkklllllllllortsrsxqqrtuvvvvvwwwwvvvurqpoppqqqqqppqrvzzwurrsssqqqrsrrrrstutrqqonmmmmnnnnnmnnnooooooprvxu
(PID.TID 0002.0001) //    242 qqqrrssrqpopqqssssrrsssrrqqqpppppqrssrqoonnmllllllllllllkjjjjjjmoijjjjjjjjiiiiihhhhhiiiiijjjjlnpswy+++........................................................................................................................................................+++wrlllkllllllllprstsrqtrrsuuvvvvwwwwwwvvusqqppqqqqqqqqrsuyyvuutsqssqrsttsssstuurrqonnnmmnnnnnnnnnorrpooqtwwt
(PID.TID 0002.0001) //    241 rrrsstsrrqqrrsssssssssssrrqqpqpopqrsrrqqponnmllllllllllkjjkjjklnnijjjjjjjiiiiiiiihhiiiiiijjjjklmptwz++...................................................................................................+....................................................++zvolllllllllllnqstssrswsstuvvvvwwwwwwwvvutrqpqqqqqqqqqrtvxwsqrssrqtqsttutrtstvvssqooopnnnnnnnnnnopqoooprvwvt
(PID.TID 0002.0001) //    240 ssstttsrrrrrssttttsstttssrqqqqpppqrssrrrqponmmllllllllllllmkjimnkijjjjjjjjiiiiiiiiiiiiiijjjjjkklmrux++........................................................................................................................................................+zwqmlllllllllllmqsttsrtustuvvwwwwwwwwwwvvvtrqqqqqqqqqqrsuwxsppqqrqqsqstvusqstuwvuqqpooonnnnnnnnnnnoooooqrvxut
(PID.TID 0002.0001) //    239 utttuussssssttuuutttuuttsrqqqqqpqqssssssrponnnmllllllllmljkjiinnijjjjjjjjjjiiiiiiiiiiiiijjjjjjkkmmqwz+........................................................................................................................................................+zslllllllllmlllorstsrqsstuvvwvvvwwwwwwwwvvusqqqqqqqqqqrsvwwqooopqqqopqrtutqttvxvtsqqponnnnnnnnnnnnnnnopqsuwts
(PID.TID 0002.0001) //    238 utttstttstuvuuuuuuvvvuuutsrrqqqqqqssssssrqponnnollllllmlkjjiijqlijjjjjjjjjjjjjiiiiiiiiiijjjjjjjkllnvz++......................................................................................................................................................++yollllllllmurlmorsrqpoqrsuvvwwvvvvwwwwwwvvutsqqqqqqqqrrsuwvronmnoqpopoqrsurtvwxvtqqroonnnnnnnnnnmnnnooprswvsr
(PID.TID 0002.0001) //    237 ssqooooonoruuvvvuvvwvvvuttssrrrrrssssssssrqpooopnmmmlnkkjjiiikplijjjjjjjjjjjjjjiiiiiiiiijjjjjjjkkkmrxz+.................................................................................................+....................................................++xmllllllllmsxnmopqponoprsuvvwwvvvvwwwwwwwvvutsqqqqqqrrrssvvrommmnppoonoqqqquvwwutrqpooonnnnnnnnnmmnoopqrtvsrr
(PID.TID 0002.0001) //    236 pqnmlllllllllnopuvvvxxwvuttsssrsssssssssssqppopqpnnnokjjjjiiijqnjjjjjjjjjjjjjjiiiiiiiiiijjjjjjjkkklouz++.....................................................................................................................................................++xnlllllllllmmmmnpqonnoprtvvvvvwwvvwwwwwwwvuttsrqqqqrsttssuvrpmmmmnonnnoopqrtvwvtsqpooonnnnnnnnnnmnnoopqsutrqq
(PID.TID 0002.0001) //    235 oonnmlllllllmlllmnptwxwwvuuttssssstttttsssrqqqrspnookjjjjjiihimmjjjjjjjjjjjjjjjiiiiiiiijjjjjjjjkkklnuz++....................................................................................................................................................+++vmllllllllllllmopqponnqvtvvvvvwwvwwwwwwwvutsttrqqqqrtuwvtuwtrommmnnnnnopoprtvvvtrqpooooonnnnnnnnmnnoopqstsqqq
(PID.TID 0002.0001) //    234 oonnnmmllllmnnnnnoonruvvwvvuutssttttttttsssrqrssqonkjjjjjiiiiijjjijjjjjjjjjjjjjjjjjjjjjjjjjjjjjkklmpuy+++......................................................++++++++++...................................................................................++zvnlllllllllllllorsqpnnszvvvvvvwwwwwwwwwvvusssssqpqqsuwxwvvxvspnmnnnnnnqqposvvvvusqpoooooqpnnnnnnnnoopprttrqqq
(PID.TID 0002.0001) //    233 oonnnnnnmllmmmmnnnnnnpppuvvvvuutuuuuutttttstsssssqljjjjjjiijiiinjjijjjjjjjjjjjjjjjjjjjjjjjjjjjkkklmptxz++..................................................++++++++++++++++................................................................................+++zunllllllllllllmnqsqnnnptwuvvvvwwwwwwwwwwvurqrsrqpqqswxxwwwxxtqonnooomnqqppsuvvuusqppoooopnnnnnnnnooopqsuqpqqq
(PID.TID 0002.0001) //    232 onnnnnnmllllllllmnmmlllmrrtvuvvvvvvutttttuuusssssrmjjjjjiiijjiiljjjijjjjjjjjjjjjjjjjjjjjjjjkkkkkllnrvwz++...............................................+++++++++++++++++++++++.+..........................................................................+++wqllllllkllllllmorspnpnnoqtuvvvvwwwwwwwwwvuqqqrrqpqruwyyxywwxvrpnoooonnoppqstvvusrqppqoooonnmmnnnooopprtsooqrq
(PID.TID 0002.0001) //    231 nnnnmmmmlllllllllllllllllmopppqsuuvspsssttuqrttsrqonljjjiiiiiihkjkjjkijjjjjjjjjjjjjjjjjjkkkklllllmotxy+++........................................+++++++++++++++++++++++++++++++++.........................................................................++ztnllllllklllmmlmpqrponmmnoqtuvvvwwwwxxxxwwurqqqqqqqruwyxxywvvutrooooonnpqqqstvutsrqppooooonnnnnnoopppqturpqqqr
(PID.TID 0002.0001) //    230 nnnnmmmmmmmmllllllllnllmlkklmmkjoplkjjkkmonllmmmllmnkjjjiiiiiigjjjjjkkijijjjjjjjjjklkkkkkkllllmmnprwyz+++.....................................+++++++++++++++++++++++++++++++++++++..............+........................................................+++xsmllllkkkkllpsllopqqpnmmmnqtuvvvwwwwxxxxxwusqqqqqpqrtvxywzyvuuuusqpoonnoqqqstvvuttsqpooooonnnnooopppqsvtrqppqs
(PID.TID 0002.0001) //    229 onnnmmmmmlllmllmmmmmmmlmmlmllkkikiiijmolmlijmpspnlllljjjiiiiihhijjjjjiiiiijjjjjjkmpqpnllllllmmnprsvxz++++...................................+++++++++++++++++++++++++++++++++++++++.....................................................................++++zuqlllllkkklllpollopqqqpommnrtuvvvvvvwxxxxxwvrqqppppqqrtxyxxwtuuuuuutrqrrpqqqrsuuvuutrqpoooooooooopqpqqtutqqpopt
(PID.TID 0002.0001) //    228 nnnnnmmmllmlllmmmlllmmmlmnnnonnknmlllllmmmjghkosommnnjjjiiiiiihiiiiiiijliiijjjjkmpsssrnmmmnnonopsuwyz++++.................................+++++++++zzzz+z+++++++++zzzzz++++++++++++++...................................................................+++zvpmllllllkkllpyslmmoqqqqqpnlqtuvvvvvvwxxxxxxwurqppppqqqswxxvxtuuuuuuvwututsrqstuttuuurqqooooooooppqqqqquvrqqqprv
(PID.TID 0002.0001) //    227 nnnnnmmmmmmlllmmmmllmmllmnoonmlmnlllllllmlkjigffgjklkjjjiiiikiiiiiiijjjjoiiijjlmosssssrppopqpoopsvwy+++++................................+++++++++zyyyyyyyyyxyyyyyyyzzzzz+++++++++++++.................................................................+++zuollllllllkkllmwolllmopqqqqonrttuvvvvvvxxxxxxwvtqqpppqqprvxxvyutuuuuuuwxvvvvutvvvuttuussrppqpoppqqrqqqqrtrqqqqquw
(PID.TID 0002.0001) //    226 nnnnmmmmlmmmmlmmmmmmmmlllllmmmmmmlllllllllmmmlieilmlkkjjiiiijiiiiiiiiiijjliijllnnrssssssrrrrqpoprvwy++++.................................++++++++zyxxxxxxwwuutvwxwwwxxyyyzz+++++++++++................................................................+++zwrlkllllllkkkklllllklllmnoppoorstttvvvvvxxxxxxxvusqqqqqqpqtxxwwwuuuutuuuvuvxwutvvvvuttttttrrsqqqqqqqqqqqtsqqqqqsvt
(PID.TID 0002.0001) //    225 nnnnmmmmlllmmmmmmmmmmmllllllmmnmllllllllllllmnmjkmnoonkjiiiiiiiiiiiiiiiijjmjikllnrssssssssrrrqppruwy++......................++++++..++++++++++zzyyxvuutuuurqqqsuvvvwwwxxxxyz+++++++++++......+........................................................+++xtollllllllkkkkllllkklllllllnmnqsttstvuuvwxxxxxwwwvtrqqqqppruyxvvuttuuttuuutvwyyxyywvuttuutttstrrrqqqqqqqtqqqqqqttr
(PID.TID 0002.0001) //    224 nnnmmmmmnmllmmmmmmmmmlllllllmmmllllllllllllllkkllllkmmljiiiiiiiiiiiiiiiiijjjjjjknrsssssssssrrrqqruwyz+..................++++++++++++++++++++zyxxurpppooooooooopqrtuvvwwwwwxyz++++++++++....+++++..+...................................................++ytqmlllllllkkkkkllllllllllllllllqsssssttuvwxxxxwwwwwvrqqqqqqqswwvvvuuvuutuuuuvwxyzz++zvuuuvvuvutttsrqqqqqssqqqqqttrq
(PID.TID 0002.0001) //    223 nmmmmmlmmmnmlmmmmmmmllllllllllllllllllllllllkkllkfhjjjjjiiiiiiiiiiiiiiiiijjjjjjknqssssssssssrrqqsvwyz+++...............++z++++++++++zzzzz+zusrpnnmmmmmmmmmmmmmnopqsuvvwwwwwxyzz+++++++++..++++++.++..................................................++yuplllllllllkkkkklllllllllllllllmpssssssttuvwwxwwwwwwvusqqqqqqrtvvvvvvvvuuttuuvvwxzz+++zwwvvvvvvvutssrqqrstqqqrsrvsqo
(PID.TID 0002.0001) //    222 mmmmmmmmlmmnmlmmmmmlllllllllllllllllllllllllllllmlgfhjjjjiiiiiiiiiiiiiiiiijjjjjjlprsssssssssrqqqsvwyz+++++..........++++zxxvvvvvvwyyyyyyywrnmmmlllllllllllllllmmnpqsuuvvvwwwxxyz++++++++.+++++++.++.................................................++zwrlllllllllllllllllllllllllllkkllprsssrrsttvvwwwwwwwwwvusrqqqqqrtuvvvvvvvvussuuuvvxz++++zzyxxvvvvvuttsrrtttrrtssttqpo
(PID.TID 0002.0001) //    221 nnmnnnnmnmmmmmmmmmlllllllllllllllllllllllllllllmnmlhfgkjjjjjjiiiiiiiiiiiiiijjjijklprrqqqrsqqpooooqvxyz++++++......++++zxurrqpppooppppqrppnmllllllllllkkkkkkkklllmnoqstuuvvwwwwwxyz++++++++++++++++++................................................++ztmllllllllkklklllllllllllllllkkllmpqqrrrsstvwwwwwwwwwwwvvsrqqqqqrstuvvvvvvvustuuvvwyz++++++zyxxwvvuuttstutrqrsttvrqpo
(PID.TID 0002.0001) //    220 nnnnnnnnnnnnmmmmmmlllllllllllllllllllllllllllllllllljhghjjkjjiiiiiiiiiiiiiiijiijkllmmlllmnmklkjkklotvwwxyz+zzz++++zzzyurpnnnmmmmmmmmmmmmmlllkkkkkkkjjjjjjjjjjjkkklmnoqrtuuvvwwwwwxz+++++++++++...+++................................................++xqlllllllllklkllklkkkklkkklllkkklllnopqqqrsstvwwwvvwwwwwvvvssrqqqrrssttuvvvvvttuuuvvxyz++.++++zyxwvuussstusqqqrsusrqpo
(PID.TID 0002.0001) //    219 nnnnnnnnnnnnnmmmmmllllllllllllllllllllllllllllllllkklkiihikllkiiiijkkjjjiiiiiiiijjkkllkkjjjjjjjjjjkmoqqrtsvxyyyyzzyxtronmllkkkkkkklllllllkkkkkjjjjjjjiiiiiiiiiijjjkklmoqrsuuuvvvwwwxyz++++++++++++++...............................................++ytolllllllllkklmmlmlkkkllllllkkkkklllnppqqqqrrtvvvvvvwwwwwvvvusrqqrrrrrrstvwwvvutuuvvwxyz++..+++zyxxwusstttqqrrtttsrqpn
(PID.TID 0002.0001) //    218 nnnnnnnnnnnnnmmmmmmlllllllllllllllllllllllllllllkkjkllllifghijlkijkkjjjjiiiiiiijjjjjjjjjjjjjjjjjjjjkllmmmponpquutsppnnmlkkkjjjjjjjkkkkkkkjjjjjjjjiiiiihhhhhhhhhhiiiijjklmoqrsstuutsstuxz++++++++++++++.+...........................................+ztolllllllllllkklllllllkklllllkkkkkkllmppqqqqqqqtuvuvvwwwwwwwvvusrrrrrrrrrstvvvvvuuuvvvwxyz+...+++zzzywvtttssrstrtsrrrqn
(PID.TID 0002.0001) //    217 nnnnnnnnnnnnnmmmmmmmllllllllllllllllllllllllllllkkkkllmmlkkkihggiijiiiihiijiiijjjiiiijjijkjiiijjjijjjjjjkklllmnnnmmmmlkkjjjjjjjjiijjjjjjjiiiiiiiihhhhhhhhhhhhhhhhhhhhiijjkkmnopppppppqruy+++....++++++++..........................................++vollllllllllllkklmlllkkkkkkklkkkkkkkkkloppqqqqqqqrttuvvwwwwwwwvvutssssssrrssttuuuuuuuvvwwxyz+..+++++zzzxussssssstsrrrrpl
(PID.TID 0002.0001) //    216 nnnnnnnnnnnnnmmmmmmmmlllllllllllllllllllllllllllkkkkkllllllkklmkmjhgghhhhiiiijjjjjjjjjjjjiiiiiiiiiijjjjjjjkkklllllllkkjjjjjjjiiiiiiiiiiiiiiiiihhhhhhhhhhhhhhhhhhhhhhhhhhhijjkklmnnnnnnnqvz+++++++++++++++........................................++zrllllllllllkkkkkllkllkkkkkkkkkkkkkkklklopppqqqqqqqsttuvwwwwwwwwvvutttssssssssttttuuuuvvvvwwyz++++++++zzwvssrrsssssrrrrol
(PID.TID 0002.0001) //    215 nnnnnnnnnnnnnnnnnmmmmllmllllllllllllllllllllllllkkkkkkkkkllllllllmnliiiihhiiijjkjjlkjjkjiikjiiiiiiijijjjjjjjkkkkkkkkkjjjjjjiiiiiihhhhhhhiihhhhhhhhhhhhhhhhhhhhhhhhhhhhhhhhhhhhijkkkkkklnqvz++++++++++++++........................................++wokklllllllkkkkkkkkkkkkmplkkkkklmkkkkkkklnopppqqqqqrstuvvwwwwwwwvvvuuttttssssssttttuuuvvuuvvwy+++++++++zwvtrrssssssrrrrnl
(PID.TID 0002.0001) //    214 nnnnnnnnmmnonnnnnnmmmmlnmllllllllllllllllllllllkkkkkkkkkkkkkkkkkkkkjiikmmljijiijlmijjjjjiijjiiiiiijjkkjjjjjjjjjjkkjjjjjjjiiiiiihhhhhhhhhhhhhhhhhhhhhhhhhhhhhhhhhhhhhhhhhhhhhhhhhiiiijjkkloquxy++++++++++++.......................................+zvmlllllllllkkkkkkkkkkkkqxmkkkkkkkjjjjjjjklllnpqqrrrrsstuvvwwvvvvvvvvvvuuuttttsssttttuuuuuuuvwxz++++++++zwvuttsssssssstrnk
(PID.TID 0002.0001) //    213 nnnnnnnmmloonnnnnnmmmmmmmmmmmmlllllllllllllllllkkkklmlkkkjjjkkkkkkjjjihiiimkjiiijijnjiijljiiijjjiiilkjjkjljjjjjjjjjjjjkjjiiiiiihhhhhhhhhhhhhhhhhhhhhhhhhhhhhhhhhhhhhhhhhhhhhhhhhhhhhiiijjklnoqsx++++++++++.......................................++umllllllllllkkkkkkkklkkmmkkkkkkkjjjjjjjjjjkllnpqrssrsstuvvvvvvvvvvvvwwvvvuuutttttttttuuuuuuuvwz++++++++zwvvuuutttttsstpmj
(PID.TID 0002.0001) //    212 nnnnnnnnmmoonnnnnnnmmmmmmmmmmmmmmllllllllllllllkkkklkkkkkkkkjjjjkkkkkjhijjijlmlkjiiiiijjjjlihijiiijijjkjjijjjkkjjkkkkkkkjiiiiijjhhhggggghhhhhhhhhhhhhhhhhhhhhhhhhhhhhhhhhhhhhhhhhhhhhiiiiijjjkmpvxyyzz+++........................................++vnllllllllllkkkkkklllkllkkkkkjjjjjjjjjjjjjjkklnpqrsstuuvvvvvvvvvvvvvwwwwwvvvuuttttttuuuvuuuuvwy++++.+++zyxwvvuuutvvuuspkl
(PID.TID 0002.0001) //    211 nnnnnnnnnnnnnnnnnnnnmmmmmmmmmmmmmllllmmllllllllkkkkkkkkkkkkkkkkkkkkkkjjklkjjkjijjjjkjjjiikjiijkjkkljjjiikljjkkjjkkjjjjjjjjjkjjihhhhhhhhhhhhhhhhhhhhhhhhhhhhhhhhhhhhhhhhhhhhhhhhhhhhhhhiiiiiiiijknrsvxxz+++.......................................+zumlllllllllllkkklllllkkkkkkkkjjjjjjjjjjjjjjjklnnoopqsuvvvvvvvvvvvvwwwxxxxwwvvvvuuuuuuuvvvvvvvwxz++....++zyyxwwxyvwxwwtnmn
(PID.TID 0002.0001) //    210 nnnnnnnnnnnnnnnnnnnnnnmnnnmmmmmmmmmmmmmmllllllllkkkkkkkkkkkkkkkkkkkkkkkllllkkkkkklmllkkkklkjjklmkllkjjjjkjiijljjjjjjjjjklljhhhhhhhhhhhhhhhhhhhhhhiihhhhhhhhhhhhhhhhhhhhhhhhhhhhhhhhhhhhiiiiiiiijjklptuwyz++.....................................++ysmlllllllllllkkklkkllklkkkkkjjjjjjjjjjjjjjjjkklmnnnoptvvvvvvvvvvvvwxxxxyxxxwwwwvvuuuuvvvvvvvvwxz++....+++zzzz++zzzyxwtnno
(PID.TID 0002.0001) //    209 oonnnnnnnnnnnnnnnnnnnnnnnnmmmmmmmmmmmmmmllllllllllllllllllkkkkjkkkkkkjjjkllllllmmmmllllllllkkllkllllkjljlkliijjkkklmjjjijjjjjiihhhhhhhhhhhhhhhhhhhhhhhhhhhhhhhhhhhhhhhhhhhhhhhhhhhhhhhhhiiiiiiiiijknqttuwz++.................+...........+++++++++xpmllllllllllkkkllklllllkkkkkjjjjjjjjjjjjjjjkkkklmmmnoruvvvvvvvvutuwxxyyyyyyxxxxwvvvvvvvvvvvvwwyz++.......+++++..++xvrpnno
(PID.TID 0002.0001) //    208 oooonnnnnnnnnnnnnnnnnnnnnnmmmmmmmmmmmmmmmllllllllllllllllllkkkkkkkkjjkkkkllllmnpnllllllllllkklllmlllkkklklljjijkkjihkjijjjiiiiiiiihhhihhhhhhhhhhhhhhhhhhhhhhhhhhhhhhhhhhhhhhhhhhhhhhhhhhhhhhhhhiiiknqrrstvxz+++.............+++........++++++++zzyuolllllllllkkkklllkklkkkkkkkkkjjjjjjjjjjjjjkkkkkllllmnqrtuvvvvvutstvwxyyzzyyyyyxxwwvvvvvvvvwwxyz++++.............+zyuqpono
(PID.TID 0002.0001) //    207 oooooooooooooonnnnnnnnnnnnnmmmmmmmmmmmmmmlllllllllllllllllllklkkjklkkkkklllllnnnlnmmlllllllllllmlkklkkjklljkjjiiijjjjjjjjkjjjjjiiiihiihhhhhhhhhhhhhhhhhhhhihhhhhhhhhhhhhhhhhhhhhhhhhhhhhhhhhhhhhiijklmnpqtuwyz++++++......++++........++++++yxwwwurmlllllllllkkkkllmkkllkkkklkkkkkjjjjjjkkkkkkkkkkllllmnpqrtuvvutsrsuvwxyzzzzzzyyyxxwwvvvvvwwxyzzz+++.............++zuqqpooo
(PID.TID 0002.0001) //    206 oooooooooooooooonnnnnnnnnnnnnnnmmmmmmmmmmllllllllllllllllllllllkkkllllllllllllmmmmmllllllllllllnlkkkkjjkkkkkkkjjjjjjjjjkklkjjjjjjjiiiihhhhhiihhhhhhhhhhhhhhhhhhhhhhhhhhhhhhhhhhhhhhhhhhhhhhhhhhhhiiijjlmnprtuvxz++++++...+++++++.....++++++zwsqsspmkllllllllkkkkkllkklllkkkklkkkkkkkkkkkkkkkkkkkkkllllmnopqsuuuusrrrtvwxyyyzzzzzyyyxxwwvvvwxzzz+z++++.............+zxsppoooo
[...]
(PID.TID 0002.0001)  cg2d: iter=  9869 ; resid.=  1.76719582616634E+07
(PID.TID 0002.0001)  cg2d: iter=  9870 ; resid.=  1.73472554400908E+07
(PID.TID 0002.0001)  cg2d: iter=  9871 ; resid.=  1.70619443017756E+07
(PID.TID 0002.0001)  cg2d: iter=  9872 ; resid.=  1.70623031946989E+07
(PID.TID 0002.0001)  cg2d: iter=  9873 ; resid.=  1.73409422360108E+07
(PID.TID 0002.0001)  cg2d: iter=  9874 ; resid.=  1.76106164690511E+07
(PID.TID 0002.0001)  cg2d: iter=  9875 ; resid.=  1.75830661960726E+07
(PID.TID 0002.0001)  cg2d: iter=  9876 ; resid.=  1.74891329184360E+07
(PID.TID 0002.0001)  cg2d: iter=  9877 ; resid.=  1.76585367693137E+07
(PID.TID 0002.0001)  cg2d: iter=  9878 ; resid.=  1.77909014589896E+07
(PID.TID 0002.0001)  cg2d: iter=  9879 ; resid.=  1.76085277661350E+07
(PID.TID 0002.0001)  cg2d: iter=  9880 ; resid.=  1.73058034841877E+07
(PID.TID 0002.0001)  cg2d: iter=  9881 ; resid.=  1.72277794416860E+07
(PID.TID 0002.0001)  cg2d: iter=  9882 ; resid.=  1.74141827014426E+07
(PID.TID 0002.0001)  cg2d: iter=  9883 ; resid.=  1.75952240580972E+07
(PID.TID 0002.0001)  cg2d: iter=  9884 ; resid.=  1.75326645085280E+07
(PID.TID 0002.0001)  cg2d: iter=  9885 ; resid.=  1.72780293061355E+07
(PID.TID 0002.0001)  cg2d: iter=  9886 ; resid.=  1.71341135369558E+07
(PID.TID 0002.0001)  cg2d: iter=  9887 ; resid.=  1.72861158051592E+07
(PID.TID 0002.0001)  cg2d: iter=  9888 ; resid.=  1.74775737194608E+07
(PID.TID 0002.0001)  cg2d: iter=  9889 ; resid.=  1.74067163252255E+07
(PID.TID 0002.0001)  cg2d: iter=  9890 ; resid.=  1.74566712850111E+07
(PID.TID 0002.0001)  cg2d: iter=  9891 ; resid.=  1.77240494001281E+07
(PID.TID 0002.0001)  cg2d: iter=  9892 ; resid.=  1.78274780812942E+07
(PID.TID 0002.0001)  cg2d: iter=  9893 ; resid.=  1.75954735919586E+07
(PID.TID 0002.0001)  cg2d: iter=  9894 ; resid.=  1.71189794610145E+07
(PID.TID 0002.0001)  cg2d: iter=  9895 ; resid.=  1.66571428156535E+07
(PID.TID 0002.0001)  cg2d: iter=  9896 ; resid.=  1.65094606160774E+07
(PID.TID 0002.0001)  cg2d: iter=  9897 ; resid.=  1.67714287352211E+07
(PID.TID 0002.0001)  cg2d: iter=  9898 ; resid.=  1.71479476629515E+07
(PID.TID 0002.0001)  cg2d: iter=  9899 ; resid.=  1.72100340804836E+07
(PID.TID 0002.0001)  cg2d: iter=  9900 ; resid.=  1.68439760974638E+07
(PID.TID 0002.0001)  cg2d: iter=  9901 ; resid.=  1.63188771410685E+07
(PID.TID 0002.0001)  cg2d: iter=  9902 ; resid.=  1.60408816758782E+07
(PID.TID 0002.0001)  cg2d: iter=  9903 ; resid.=  1.61826952022259E+07
(PID.TID 0002.0001)  cg2d: iter=  9904 ; resid.=  1.63670837022638E+07
(PID.TID 0002.0001)  cg2d: iter=  9905 ; resid.=  1.61243013752642E+07
(PID.TID 0002.0001)  cg2d: iter=  9906 ; resid.=  1.55530009669633E+07
(PID.TID 0002.0001)  cg2d: iter=  9907 ; resid.=  1.51494863873568E+07
(PID.TID 0002.0001)  cg2d: iter=  9908 ; resid.=  1.51858028762963E+07
(PID.TID 0002.0001)  cg2d: iter=  9909 ; resid.=  1.51092134920640E+07
(PID.TID 0002.0001)  cg2d: iter=  9910 ; resid.=  1.46726162634107E+07
(PID.TID 0002.0001)  cg2d: iter=  9911 ; resid.=  1.43461167749153E+07
(PID.TID 0002.0001)  cg2d: iter=  9912 ; resid.=  1.44365908352512E+07
(PID.TID 0002.0001)  cg2d: iter=  9913 ; resid.=  1.48060715207242E+07
(PID.TID 0002.0001)  cg2d: iter=  9914 ; resid.=  1.49722342747702E+07
(PID.TID 0002.0001)  cg2d: iter=  9915 ; resid.=  1.47231992032037E+07
(PID.TID 0002.0001)  cg2d: iter=  9916 ; resid.=  1.44873585162055E+07
(PID.TID 0002.0001)  cg2d: iter=  9917 ; resid.=  1.46790083213750E+07
(PID.TID 0002.0001)  cg2d: iter=  9918 ; resid.=  1.51961311338631E+07
(PID.TID 0002.0001)  cg2d: iter=  9919 ; resid.=  1.55524699368768E+07
(PID.TID 0002.0001)  cg2d: iter=  9920 ; resid.=  1.53747823902887E+07
(PID.TID 0002.0001)  cg2d: iter=  9921 ; resid.=  1.49471458304695E+07
(PID.TID 0002.0001)  cg2d: iter=  9922 ; resid.=  1.49792107376429E+07
(PID.TID 0002.0001)  cg2d: iter=  9923 ; resid.=  1.49670428432988E+07
(PID.TID 0002.0001)  cg2d: iter=  9924 ; resid.=  1.44288924168114E+07
(PID.TID 0002.0001)  cg2d: iter=  9925 ; resid.=  1.39340951269498E+07
(PID.TID 0002.0001)  cg2d: iter=  9926 ; resid.=  1.38931571448695E+07
(PID.TID 0002.0001)  cg2d: iter=  9927 ; resid.=  1.42485216622821E+07
(PID.TID 0002.0001)  cg2d: iter=  9928 ; resid.=  1.45599837356086E+07
(PID.TID 0002.0001)  cg2d: iter=  9929 ; resid.=  1.44247305909665E+07
(PID.TID 0002.0001)  cg2d: iter=  9930 ; resid.=  1.40437657082691E+07
(PID.TID 0002.0001)  cg2d: iter=  9931 ; resid.=  1.39373424642285E+07
(PID.TID 0002.0001)  cg2d: iter=  9932 ; resid.=  1.43050083486524E+07
(PID.TID 0002.0001)  cg2d: iter=  9933 ; resid.=  1.48831083305865E+07
(PID.TID 0002.0001)  cg2d: iter=  9934 ; resid.=  1.51734173713129E+07
(PID.TID 0002.0001)  cg2d: iter=  9935 ; resid.=  1.49194404064586E+07
(PID.TID 0002.0001)  cg2d: iter=  9936 ; resid.=  1.43883838794372E+07
(PID.TID 0002.0001)  cg2d: iter=  9937 ; resid.=  1.41171204031633E+07
(PID.TID 0002.0001)  cg2d: iter=  9938 ; resid.=  1.43410708739558E+07
(PID.TID 0002.0001)  cg2d: iter=  9939 ; resid.=  1.46967223510365E+07
(PID.TID 0002.0001)  cg2d: iter=  9940 ; resid.=  1.46250214970467E+07
(PID.TID 0002.0001)  cg2d: iter=  9941 ; resid.=  1.42996550525412E+07
(PID.TID 0002.0001)  cg2d: iter=  9942 ; resid.=  1.43389683350418E+07
(PID.TID 0002.0001)  cg2d: iter=  9943 ; resid.=  1.45749962423464E+07
(PID.TID 0002.0001)  cg2d: iter=  9944 ; resid.=  1.44590892989523E+07
(PID.TID 0002.0001)  cg2d: iter=  9945 ; resid.=  1.42121422827375E+07
(PID.TID 0002.0001)  cg2d: iter=  9946 ; resid.=  1.43659605979825E+07
(PID.TID 0002.0001)  cg2d: iter=  9947 ; resid.=  1.47609920075165E+07
(PID.TID 0002.0001)  cg2d: iter=  9948 ; resid.=  1.48411499037947E+07
(PID.TID 0002.0001)  cg2d: iter=  9949 ; resid.=  1.45324485961316E+07
(PID.TID 0002.0001)  cg2d: iter=  9950 ; resid.=  1.43572526609060E+07
(PID.TID 0002.0001)  cg2d: iter=  9951 ; resid.=  1.46409099876367E+07
(PID.TID 0002.0001)  cg2d: iter=  9952 ; resid.=  1.51703154370097E+07
(PID.TID 0002.0001)  cg2d: iter=  9953 ; resid.=  1.54816408536297E+07
(PID.TID 0002.0001)  cg2d: iter=  9954 ; resid.=  1.52913928859095E+07
(PID.TID 0002.0001)  cg2d: iter=  9955 ; resid.=  1.48557817204982E+07
(PID.TID 0002.0001)  cg2d: iter=  9956 ; resid.=  1.47584945595810E+07
(PID.TID 0002.0001)  cg2d: iter=  9957 ; resid.=  1.48798874245604E+07
(PID.TID 0002.0001)  cg2d: iter=  9958 ; resid.=  1.46480086047429E+07
(PID.TID 0002.0001)  cg2d: iter=  9959 ; resid.=  1.45124638450712E+07
(PID.TID 0002.0001)  cg2d: iter=  9960 ; resid.=  1.47641374281992E+07
(PID.TID 0002.0001)  cg2d: iter=  9961 ; resid.=  1.50809515183056E+07
(PID.TID 0002.0001)  cg2d: iter=  9962 ; resid.=  1.51100058644079E+07
(PID.TID 0002.0001)  cg2d: iter=  9963 ; resid.=  1.49029674480978E+07
(PID.TID 0002.0001)  cg2d: iter=  9964 ; resid.=  1.48774665007944E+07
(PID.TID 0002.0001)  cg2d: iter=  9965 ; resid.=  1.51900576540232E+07
(PID.TID 0002.0001)  cg2d: iter=  9966 ; resid.=  1.55888411616587E+07
(PID.TID 0002.0001)  cg2d: iter=  9967 ; resid.=  1.57477716433423E+07
(PID.TID 0002.0001)  cg2d: iter=  9968 ; resid.=  1.55590040691276E+07
(PID.TID 0002.0001)  cg2d: iter=  9969 ; resid.=  1.52862171630922E+07
(PID.TID 0002.0001)  cg2d: iter=  9970 ; resid.=  1.53051994159296E+07
(PID.TID 0002.0001)  cg2d: iter=  9971 ; resid.=  1.54987290848944E+07
(PID.TID 0002.0001)  cg2d: iter=  9972 ; resid.=  1.54458144463079E+07
(PID.TID 0002.0001)  cg2d: iter=  9973 ; resid.=  1.51012144178427E+07
(PID.TID 0002.0001)  cg2d: iter=  9974 ; resid.=  1.48126704412088E+07
(PID.TID 0002.0001)  cg2d: iter=  9975 ; resid.=  1.48838918709853E+07
(PID.TID 0002.0001)  cg2d: iter=  9976 ; resid.=  1.51829912946603E+07
(PID.TID 0002.0001)  cg2d: iter=  9977 ; resid.=  1.52801956799512E+07
(PID.TID 0002.0001)  cg2d: iter=  9978 ; resid.=  1.50903940222518E+07
(PID.TID 0002.0001)  cg2d: iter=  9979 ; resid.=  1.50465798619898E+07
(PID.TID 0002.0001)  cg2d: iter=  9980 ; resid.=  1.52124180981314E+07
(PID.TID 0002.0001)  cg2d: iter=  9981 ; resid.=  1.51636927237779E+07
(PID.TID 0002.0001)  cg2d: iter=  9982 ; resid.=  1.47827529804151E+07
(PID.TID 0002.0001)  cg2d: iter=  9983 ; resid.=  1.43826083875895E+07
(PID.TID 0002.0001)  cg2d: iter=  9984 ; resid.=  1.43054818995593E+07
(PID.TID 0002.0001)  cg2d: iter=  9985 ; resid.=  1.45750177074532E+07
(PID.TID 0002.0001)  cg2d: iter=  9986 ; resid.=  1.48751828685502E+07
(PID.TID 0002.0001)  cg2d: iter=  9987 ; resid.=  1.48445137740726E+07
(PID.TID 0002.0001)  cg2d: iter=  9988 ; resid.=  1.44401625017813E+07
(PID.TID 0002.0001)  cg2d: iter=  9989 ; resid.=  1.39992318315821E+07
(PID.TID 0002.0001)  cg2d: iter=  9990 ; resid.=  1.39204590869365E+07
(PID.TID 0002.0001)  cg2d: iter=  9991 ; resid.=  1.40437431123111E+07
(PID.TID 0002.0001)  cg2d: iter=  9992 ; resid.=  1.38667170841218E+07
(PID.TID 0002.0001)  cg2d: iter=  9993 ; resid.=  1.38079825976017E+07
(PID.TID 0002.0001)  cg2d: iter=  9994 ; resid.=  1.41042135847373E+07
(PID.TID 0002.0001)  cg2d: iter=  9995 ; resid.=  1.44313421373791E+07
(PID.TID 0002.0001)  cg2d: iter=  9996 ; resid.=  1.44243622107736E+07
(PID.TID 0002.0001)  cg2d: iter=  9997 ; resid.=  1.40924049030603E+07
(PID.TID 0002.0001)  cg2d: iter=  9998 ; resid.=  1.37948223170315E+07
(PID.TID 0002.0001)  cg2d: iter=  9999 ; resid.=  1.38335038433084E+07
(PID.TID 0002.0001)  cg2d: iter= 10000 ; resid.=  1.41843983139381E+07
(PID.TID 0002.0001) // =======================================================
(PID.TID 0002.0001) // Model current state
(PID.TID 0002.0001) // =======================================================
(PID.TID 0002.0001) 
(PID.TID 0002.0001) // =======================================================
(PID.TID 0002.0001) // Begin MONITOR dynamic field statistics
(PID.TID 0002.0001) // =======================================================
(PID.TID 0002.0001) %MON time_tsnumber                =                     0
(PID.TID 0002.0001) %MON time_secondsf                =   0.0000000000000E+00
(PID.TID 0002.0001) %MON dynstat_eta_max              =   0.0000000000000E+00
(PID.TID 0002.0001) %MON dynstat_eta_min              =   0.0000000000000E+00
(PID.TID 0002.0001) %MON dynstat_eta_mean             =   0.0000000000000E+00
(PID.TID 0002.0001) %MON dynstat_eta_sd               =   0.0000000000000E+00
(PID.TID 0002.0001) %MON dynstat_eta_del2             =   0.0000000000000E+00
(PID.TID 0002.0001) %MON dynstat_uvel_max             =   0.0000000000000E+00
(PID.TID 0002.0001) %MON dynstat_uvel_min             =   0.0000000000000E+00
(PID.TID 0002.0001) %MON dynstat_uvel_mean            =   0.0000000000000E+00
(PID.TID 0002.0001) %MON dynstat_uvel_sd              =   0.0000000000000E+00
(PID.TID 0002.0001) %MON dynstat_uvel_del2            =   0.0000000000000E+00
(PID.TID 0002.0001) %MON dynstat_vvel_max             =   0.0000000000000E+00
(PID.TID 0002.0001) %MON dynstat_vvel_min             =   0.0000000000000E+00
(PID.TID 0002.0001) %MON dynstat_vvel_mean            =   0.0000000000000E+00
(PID.TID 0002.0001) %MON dynstat_vvel_sd              =   0.0000000000000E+00
(PID.TID 0002.0001) %MON dynstat_vvel_del2            =   0.0000000000000E+00
(PID.TID 0002.0001) %MON dynstat_wvel_max             =  -0.0000000000000E+00
(PID.TID 0002.0001) %MON dynstat_wvel_min             =  -0.0000000000000E+00
(PID.TID 0002.0001) %MON dynstat_wvel_mean            =   0.0000000000000E+00
(PID.TID 0002.0001) %MON dynstat_wvel_sd              =   0.0000000000000E+00
(PID.TID 0002.0001) %MON dynstat_wvel_del2            =   0.0000000000000E+00
(PID.TID 0002.0001) %MON dynstat_theta_max            =   2.0000000000000E+01
(PID.TID 0002.0001) %MON dynstat_theta_min            =   2.0000000000000E+01
(PID.TID 0002.0001) %MON dynstat_theta_mean           =   2.0000000000000E+01
(PID.TID 0002.0001) %MON dynstat_theta_sd             =   8.1712414612411E-14
(PID.TID 0002.0001) %MON dynstat_theta_del2           =   0.0000000000000E+00
(PID.TID 0002.0001) %MON dynstat_salt_max             =   3.0000000000000E+01
(PID.TID 0002.0001) %MON dynstat_salt_min             =   3.0000000000000E+01
(PID.TID 0002.0001) %MON dynstat_salt_mean            =   3.0000000000000E+01
(PID.TID 0002.0001) %MON dynstat_salt_sd              =   2.0605739337043E-13
(PID.TID 0002.0001) %MON dynstat_salt_del2            =   0.0000000000000E+00
(PID.TID 0002.0001) %MON dynstat_sst_max              =   2.0000000000000E+01
(PID.TID 0002.0001) %MON dynstat_sst_min              =   2.0000000000000E+01
(PID.TID 0002.0001) %MON dynstat_sst_mean             =   1.9999999999998E+01
(PID.TID 0002.0001) %MON dynstat_sst_sd               =   2.4584778657296E-12
(PID.TID 0002.0001) %MON dynstat_sst_del2             =   0.0000000000000E+00
(PID.TID 0002.0001) %MON dynstat_sss_max              =   3.0000000000000E+01
(PID.TID 0002.0001) %MON dynstat_sss_min              =   3.0000000000000E+01
(PID.TID 0002.0001) %MON dynstat_sss_mean             =   2.9999999999996E+01
(PID.TID 0002.0001) %MON dynstat_sss_sd               =   4.4231285301062E-12
(PID.TID 0002.0001) %MON dynstat_sss_del2             =   0.0000000000000E+00
(PID.TID 0002.0001) %MON forcing_qnet_max             =   0.0000000000000E+00
(PID.TID 0002.0001) %MON forcing_qnet_min             =   0.0000000000000E+00
(PID.TID 0002.0001) %MON forcing_qnet_mean            =   0.0000000000000E+00
(PID.TID 0002.0001) %MON forcing_qnet_sd              =   0.0000000000000E+00
(PID.TID 0002.0001) %MON forcing_qnet_del2            =   0.0000000000000E+00
(PID.TID 0002.0001) %MON forcing_qsw_max              =   0.0000000000000E+00
(PID.TID 0002.0001) %MON forcing_qsw_min              =   0.0000000000000E+00
(PID.TID 0002.0001) %MON forcing_qsw_mean             =   0.0000000000000E+00
(PID.TID 0002.0001) %MON forcing_qsw_sd               =   0.0000000000000E+00
(PID.TID 0002.0001) %MON forcing_qsw_del2             =   0.0000000000000E+00
(PID.TID 0002.0001) %MON forcing_empmr_max            =   0.0000000000000E+00
(PID.TID 0002.0001) %MON forcing_empmr_min            =   0.0000000000000E+00
(PID.TID 0002.0001) %MON forcing_empmr_mean           =   0.0000000000000E+00
(PID.TID 0002.0001) %MON forcing_empmr_sd             =   0.0000000000000E+00
(PID.TID 0002.0001) %MON forcing_empmr_del2           =   0.0000000000000E+00
(PID.TID 0002.0001) %MON forcing_fu_max               =   0.0000000000000E+00
(PID.TID 0002.0001) %MON forcing_fu_min               =   0.0000000000000E+00
(PID.TID 0002.0001) %MON forcing_fu_mean              =   0.0000000000000E+00
(PID.TID 0002.0001) %MON forcing_fu_sd                =   0.0000000000000E+00
(PID.TID 0002.0001) %MON forcing_fu_del2              =   0.0000000000000E+00
(PID.TID 0002.0001) %MON forcing_fv_max               =   0.0000000000000E+00
(PID.TID 0002.0001) %MON forcing_fv_min               =   0.0000000000000E+00
(PID.TID 0002.0001) %MON forcing_fv_mean              =   0.0000000000000E+00
(PID.TID 0002.0001) %MON forcing_fv_sd                =   0.0000000000000E+00
(PID.TID 0002.0001) %MON forcing_fv_del2              =   0.0000000000000E+00
(PID.TID 0002.0001) %MON trAdv_CFL_u_max              =   0.0000000000000E+00
(PID.TID 0002.0001) %MON trAdv_CFL_v_max              =   0.0000000000000E+00
(PID.TID 0002.0001) %MON trAdv_CFL_w_max              =   0.0000000000000E+00
(PID.TID 0002.0001) %MON advcfl_uvel_max              =   0.0000000000000E+00
(PID.TID 0002.0001) %MON advcfl_vvel_max              =   0.0000000000000E+00
(PID.TID 0002.0001) %MON advcfl_wvel_max              =   0.0000000000000E+00
(PID.TID 0002.0001) %MON advcfl_W_hf_max              =   0.0000000000000E+00
(PID.TID 0002.0001) %MON pe_b_mean                    =   0.0000000000000E+00
(PID.TID 0002.0001) %MON ke_max                       =   0.0000000000000E+00
(PID.TID 0002.0001) %MON ke_mean                      =   0.0000000000000E+00
(PID.TID 0002.0001) %MON ke_vol                       =   1.3390214028633E+18
(PID.TID 0002.0001) %MON vort_r_min                   =   0.0000000000000E+00
(PID.TID 0002.0001) %MON vort_r_max                   =   0.0000000000000E+00
(PID.TID 0002.0001) %MON vort_a_mean                  =  -1.3013328496589E-05
(PID.TID 0002.0001) %MON vort_a_sd                    =   8.0374144259079E-05
(PID.TID 0002.0001) %MON vort_p_mean                  =  -4.0285224932342E-05
(PID.TID 0002.0001) %MON vort_p_sd                    =   2.8329417776011E-03
(PID.TID 0002.0001) %MON surfExpan_theta_mean         =   0.0000000000000E+00
(PID.TID 0002.0001) %MON surfExpan_salt_mean          =   0.0000000000000E+00
(PID.TID 0002.0001) // =======================================================
(PID.TID 0002.0001) // End MONITOR dynamic field statistics
(PID.TID 0002.0001) // =======================================================
(PID.TID 0002.0001)   Seconds in section "ALL                    [THE_MODEL_MAIN]":
(PID.TID 0002.0001)           User time:   21.043341401964426
(PID.TID 0002.0001)         System time:  0.19248600583523512
(PID.TID 0002.0001)     Wall clock time:   23.063094139099121
(PID.TID 0002.0001)          No. starts:           1
(PID.TID 0002.0001)           No. stops:           1
(PID.TID 0002.0001)   Seconds in section "INITIALISE_FIXED       [THE_MODEL_MAIN]":
(PID.TID 0002.0001)           User time:   6.5071001648902893E-002
(PID.TID 0002.0001)         System time:   2.7577999047935009E-002
(PID.TID 0002.0001)     Wall clock time:  0.24585890769958496
(PID.TID 0002.0001)          No. starts:           1
(PID.TID 0002.0001)           No. stops:           1
(PID.TID 0002.0001)   Seconds in section "THE_MAIN_LOOP          [THE_MODEL_MAIN]":
(PID.TID 0002.0001)           User time:   20.978256583213806
(PID.TID 0002.0001)         System time:  0.16488500684499741
(PID.TID 0002.0001)     Wall clock time:   22.817008972167969
(PID.TID 0002.0001)          No. starts:           1
(PID.TID 0002.0001)           No. stops:           1
(PID.TID 0002.0001)   Seconds in section "INITIALISE_VARIA    [THE_MAIN_LOOP]":
(PID.TID 0002.0001)           User time:   20.978244051337242
(PID.TID 0002.0001)         System time:  0.16487799957394600
(PID.TID 0002.0001)     Wall clock time:   22.816989898681641
(PID.TID 0002.0001)          No. starts:           1
(PID.TID 0002.0001)           No. stops:           1
(PID.TID 0002.0001)   Seconds in section "MAIN LOOP           [THE_MAIN_LOOP]":
(PID.TID 0002.0001)           User time:   3.8146972656250000E-006
(PID.TID 0002.0001)         System time:   1.0132789611816406E-006
(PID.TID 0002.0001)     Wall clock time:   3.8146972656250000E-006
(PID.TID 0002.0001)          No. starts:           1
(PID.TID 0002.0001)           No. stops:           1
(PID.TID 0002.0001) // ======================================================
(PID.TID 0002.0001) // Tile <-> Tile communication statistics
(PID.TID 0002.0001) // ======================================================
(PID.TID 0002.0001) // o Tile number: 000002
(PID.TID 0002.0001) //         No. X exchanges =              0
(PID.TID 0002.0001) //            Max. X spins =              0
(PID.TID 0002.0001) //            Min. X spins =     1000000000
(PID.TID 0002.0001) //          Total. X spins =              0
(PID.TID 0002.0001) //            Avg. X spins =       0.00E+00
(PID.TID 0002.0001) //         No. Y exchanges =              0
(PID.TID 0002.0001) //            Max. Y spins =              0
(PID.TID 0002.0001) //            Min. Y spins =     1000000000
(PID.TID 0002.0001) //          Total. Y spins =              0
(PID.TID 0002.0001) //            Avg. Y spins =       0.00E+00
(PID.TID 0002.0001) // o Thread number: 000001
(PID.TID 0002.0001) //            No. barriers =          60562
(PID.TID 0002.0001) //      Max. barrier spins =              1
(PID.TID 0002.0001) //      Min. barrier spins =              1
(PID.TID 0002.0001) //     Total barrier spins =          60562
(PID.TID 0002.0001) //      Avg. barrier spins =       1.00E+00
PROGRAM MAIN: Execution ended Normally
