(PID.TID 0007.0001) 
(PID.TID 0007.0001) // ======================================================
(PID.TID 0007.0001) //                      MITgcm UV
(PID.TID 0007.0001) //                      =========
(PID.TID 0007.0001) // ======================================================
(PID.TID 0007.0001) // execution environment starting up...
(PID.TID 0007.0001) 
(PID.TID 0007.0001) // MITgcmUV version:  checkpoint69i
(PID.TID 0007.0001) // Build user:        hodahashemi
(PID.TID 0007.0001) // Build host:        Hodas-MacBook-Pro.local
(PID.TID 0007.0001) // Build date:        Sun Feb 22 01:03:20 EET 2026
(PID.TID 0007.0001) 
(PID.TID 0007.0001) // =======================================================
(PID.TID 0007.0001) // Execution Environment parameter file "eedata"
(PID.TID 0007.0001) // =======================================================
(PID.TID 0007.0001) > &EEPARMS
(PID.TID 0007.0001) >  nTx=1,
(PID.TID 0007.0001) >  nTy=1,
(PID.TID 0007.0001) > /
(PID.TID 0007.0001) >
(PID.TID 0007.0001) 
(PID.TID 0007.0001) // =======================================================
(PID.TID 0007.0001) // Computational Grid Specification ( see files "SIZE.h" )
(PID.TID 0007.0001) //                                  ( and "eedata"       )
(PID.TID 0007.0001) // =======================================================
(PID.TID 0007.0001)      nPx =    4 ; /* No. processes in X */
(PID.TID 0007.0001)      nPy =    2 ; /* No. processes in Y */
(PID.TID 0007.0001)      nSx =    1 ; /* No. tiles in X per process */
(PID.TID 0007.0001)      nSy =    1 ; /* No. tiles in Y per process */
(PID.TID 0007.0001)      sNx =  360 ; /* Tile size in X */
(PID.TID 0007.0001)      sNy =  360 ; /* Tile size in Y */
(PID.TID 0007.0001)      OLx =    2 ; /* Tile overlap distance in X */
(PID.TID 0007.0001)      OLy =    2 ; /* Tile overlap distance in Y */
(PID.TID 0007.0001)      nTx =    1 ; /* No. threads in X per process */
(PID.TID 0007.0001)      nTy =    1 ; /* No. threads in Y per process */
(PID.TID 0007.0001)       Nr =    1 ; /* No. levels in the vertical   */
(PID.TID 0007.0001)       Nx = 1440 ; /* Total domain size in X ( = nPx*nSx*sNx ) */
(PID.TID 0007.0001)       Ny =  720 ; /* Total domain size in Y ( = nPy*nSy*sNy ) */
(PID.TID 0007.0001)   nTiles =    1 ; /* Total no. tiles per process ( = nSx*nSy ) */
(PID.TID 0007.0001)   nProcs =    8 ; /* Total no. processes ( = nPx*nPy ) */
(PID.TID 0007.0001) nThreads =    1 ; /* Total no. threads per process ( = nTx*nTy ) */
(PID.TID 0007.0001) usingMPI =    T ; /* Flag used to control whether MPI is in use */
(PID.TID 0007.0001)                   /*  note: To execute a program with MPI calls */
(PID.TID 0007.0001)                   /*  it must be launched appropriately e.g     */
(PID.TID 0007.0001)                   /*  "mpirun -np 64 ......"                    */
(PID.TID 0007.0001) useCoupler=   F ; /* Flag used to control communications with   */
(PID.TID 0007.0001)                   /*  other model components, through a coupler */
(PID.TID 0007.0001) useNest2W_parent =    F ;/* Control 2-W Nesting comm */
(PID.TID 0007.0001) useNest2W_child  =    F ;/* Control 2-W Nesting comm */
(PID.TID 0007.0001) debugMode =    F ; /* print debug msg. (sequence of S/R calls)  */
(PID.TID 0007.0001) printMapIncludesZeros=    F ; /* print zeros in Std.Output maps */
(PID.TID 0007.0001) maxLengthPrt1D=   65 /* maxLength of 1D array printed to StdOut */
(PID.TID 0007.0001) 
(PID.TID 0007.0001) ======= Starting MPI parallel Run =========
(PID.TID 0007.0001)  My Processor Name (len: 23 ) = Hodas-MacBook-Pro.local
(PID.TID 0007.0001)  Located at (  3,  1) on processor grid (0:  3,0:  1)
(PID.TID 0007.0001)  Origin at  (  1081,   361) on global grid (1:  1440,1:   720)
(PID.TID 0007.0001)  North neighbor = processor 0006
(PID.TID 0007.0001)  South neighbor = processor 0006
(PID.TID 0007.0001)   East neighbor = processor 0001
(PID.TID 0007.0001)   West neighbor = processor 0005
(PID.TID 0007.0001) // ======================================================
(PID.TID 0007.0001) // Mapping of tiles to threads
(PID.TID 0007.0001) // ======================================================
(PID.TID 0007.0001) // -o- Thread   1, tiles (   1:   1,   1:   1)
(PID.TID 0007.0001) 
(PID.TID 0007.0001) // ======================================================
(PID.TID 0007.0001) // Tile <-> Tile connectvity table
(PID.TID 0007.0001) // ======================================================
(PID.TID 0007.0001) // Tile number: 000008 (process no. = 000007)
(PID.TID 0007.0001) //        WEST: Tile = 000007, Process = 000005, Comm = messages
(PID.TID 0007.0001) //                bi = 000001, bj = 000001
(PID.TID 0007.0001) //        EAST: Tile = 000005, Process = 000001, Comm = messages
(PID.TID 0007.0001) //                bi = 000001, bj = 000001
(PID.TID 0007.0001) //       SOUTH: Tile = 000004, Process = 000006, Comm = messages
(PID.TID 0007.0001) //                bi = 000001, bj = 000001
(PID.TID 0007.0001) //       NORTH: Tile = 000004, Process = 000006, Comm = messages
(PID.TID 0007.0001) //                bi = 000001, bj = 000001
(PID.TID 0007.0001) 
(PID.TID 0007.0001)  INI_PARMS: opening model parameter file "data"
(PID.TID 0007.0001)  OPEN_COPY_DATA_FILE: opening file data
(PID.TID 0007.0001) // =======================================================
(PID.TID 0007.0001) // Parameter file "data"
(PID.TID 0007.0001) // =======================================================
(PID.TID 0007.0001) >&PARM01
(PID.TID 0007.0001) >#rotationPeriod is set ini_parms: 86164 \approx 7.292123516990375e-5 ; our fortan is c/86400
(PID.TID 0007.0001) ># 7.27220521664304e-5 , 6.283185307179586
(PID.TID 0007.0001) >omega = 7.292E-5,
(PID.TID 0007.0001) ># MAYBE WE NEED TO ADD 1E2 FOR STABILITY IDK
(PID.TID 0007.0001) >viscAh  = 0.,
(PID.TID 0007.0001) >viscA4  = 0.,
(PID.TID 0007.0001) >diffKhT = 0.,
(PID.TID 0007.0001) >no_slip_sides = .FALSE.,
(PID.TID 0007.0001) >no_slip_bottom = .FALSE.,
(PID.TID 0007.0001) >exactConserv=.TRUE.,
(PID.TID 0007.0001) >momStepping=.FALSE.,
(PID.TID 0007.0001) >tempStepping=.FALSE.,
(PID.TID 0007.0001) >saltStepping=.FALSE.,
(PID.TID 0007.0001) >hFacMin=0.00001,
(PID.TID 0007.0001) >hFacMinDr=0.5,
(PID.TID 0007.0001) >/
(PID.TID 0007.0001) >
(PID.TID 0007.0001) >&PARM02
(PID.TID 0007.0001) >cg2dMaxIters = 5000,
(PID.TID 0007.0001) >cg2dTargetResidual = 1.E-8,
(PID.TID 0007.0001) >cg2dPreCondFreq = 1,
(PID.TID 0007.0001) >printResidualFreq= 1 ,
(PID.TID 0007.0001) >/
(PID.TID 0007.0001) >
(PID.TID 0007.0001) >&PARM03
(PID.TID 0007.0001) >nIter0   = 0,
(PID.TID 0007.0001) >nTimeSteps = 0,
(PID.TID 0007.0001) >deltaT   = 3600.,
(PID.TID 0007.0001) >monitorFreq=10,
(PID.TID 0007.0001) >/
(PID.TID 0007.0001) >
(PID.TID 0007.0001) >&PARM04
(PID.TID 0007.0001) >usingSphericalPolarGrid = .TRUE.,
(PID.TID 0007.0001) >delX = 1440*0.25,
(PID.TID 0007.0001) >delY = 720*0.25,
(PID.TID 0007.0001) >xgOrigin = 0.,
(PID.TID 0007.0001) >ygOrigin = -90.,
(PID.TID 0007.0001) >rSphere = 6371000.,
(PID.TID 0007.0001) >#clipping elevation of water
(PID.TID 0007.0001) >delR =  11000.0,
(PID.TID 0007.0001) ># 11000.0 ,
(PID.TID 0007.0001) >
(PID.TID 0007.0001) >/
(PID.TID 0007.0001) >
(PID.TID 0007.0001) ># Input datasets
(PID.TID 0007.0001) >&PARM05
(PID.TID 0007.0001) >bathyFile='bathymetry.bin',
(PID.TID 0007.0001) ># bathyFile='',
(PID.TID 0007.0001) >#  zonalWindFile='wind.bin',# Forcing to drive the "steady" circulation
(PID.TID 0007.0001) >
(PID.TID 0007.0001) >/
(PID.TID 0007.0001) >
(PID.TID 0007.0001) 
(PID.TID 0007.0001)  INI_PARMS ; starts to read PARM01
(PID.TID 0007.0001)  INI_PARMS ; read PARM01 : OK
(PID.TID 0007.0001) S/R INI_PARMS: No request for barotropic solver
(PID.TID 0007.0001) S/R INI_PARMS: => Use implicitFreeSurface as default
(PID.TID 0007.0001)  INI_PARMS ; starts to read PARM02
(PID.TID 0007.0001)  INI_PARMS ; read PARM02 : OK
(PID.TID 0007.0001)  INI_PARMS ; starts to read PARM03
(PID.TID 0007.0001)  INI_PARMS ; read PARM03 : OK
(PID.TID 0007.0001)  INI_PARMS ; starts to read PARM04
(PID.TID 0007.0001)  INI_PARMS ; read PARM04 : OK
(PID.TID 0007.0001)  INI_PARMS ; starts to read PARM05
(PID.TID 0007.0001)  INI_PARMS ; read PARM05 : OK
(PID.TID 0007.0001)  INI_PARMS: finished reading file "data"
(PID.TID 0007.0001)  PACKAGES_BOOT: opening data.pkg
(PID.TID 0007.0001)  OPEN_COPY_DATA_FILE: opening file data.pkg
(PID.TID 0007.0001) // =======================================================
(PID.TID 0007.0001) // Parameter file "data.pkg"
(PID.TID 0007.0001) // =======================================================
(PID.TID 0007.0001) > &PACKAGES
(PID.TID 0007.0001) >  useMyPackage = .TRUE.,
(PID.TID 0007.0001) > /
(PID.TID 0007.0001) 
(PID.TID 0007.0001)  PACKAGES_BOOT: finished reading data.pkg
(PID.TID 0007.0001)  PACKAGES_BOOT: On/Off package Summary
 --------  pkgs with a standard "usePKG" On/Off switch in "data.pkg":  --------
 pkg/mypackage            compiled   and   used ( useMYPACKAGE             = T )
 -------- pkgs without standard "usePKG" On/Off switch in "data.pkg":  --------
 pkg/generic_advdiff      compiled but not used ( useGAD                   = F )
 pkg/mom_common           compiled but not used ( momStepping              = F )
 pkg/mom_vecinv           compiled but not used ( +vectorInvariantMomentum = F )
 pkg/mom_fluxform         compiled but not used ( & not vectorInvariantMom = F )
 pkg/monitor              compiled   and   used ( monitorFreq > 0.         = T )
 pkg/debug                compiled but not used ( debugMode                = F )
 pkg/rw                   compiled   and   used
 pkg/mdsio                compiled   and   used
(PID.TID 0007.0001)  PACKAGES_BOOT: End of package Summary
(PID.TID 0007.0001) 
(PID.TID 0007.0001) MYPACKAGE_READPARMS: opening data.mypackage
(PID.TID 0007.0001)  OPEN_COPY_DATA_FILE: opening file data.mypackage
(PID.TID 0007.0001) // =======================================================
(PID.TID 0007.0001) // Parameter file "data.mypackage"
(PID.TID 0007.0001) // =======================================================
(PID.TID 0007.0001) >&MYPACKAGE_PARM01
(PID.TID 0007.0001) >/
(PID.TID 0007.0001) 
(PID.TID 0007.0001) MYPACKAGE_READPARMS: finished reading data.mypackage
(PID.TID 0007.0001) SET_PARMS: done
(PID.TID 0007.0001) Enter INI_VERTICAL_GRID: setInterFDr=    T ; setCenterDr=    F
(PID.TID 0007.0001) %MON XC_max                       =   3.5987500000000E+02
(PID.TID 0007.0001) %MON XC_min                       =   1.2500000000000E-01
(PID.TID 0007.0001) %MON XC_mean                      =   1.8000000000000E+02
(PID.TID 0007.0001) %MON XC_sd                        =   1.0392302339552E+02
(PID.TID 0007.0001) %MON XG_max                       =   3.5975000000000E+02
(PID.TID 0007.0001) %MON XG_min                       =   0.0000000000000E+00
(PID.TID 0007.0001) %MON XG_mean                      =   1.7987500000000E+02
(PID.TID 0007.0001) %MON XG_sd                        =   1.0392302339552E+02
(PID.TID 0007.0001) %MON DXC_max                      =   2.7798665505088E+04
(PID.TID 0007.0001) %MON DXC_min                      =   6.0647376310612E+01
(PID.TID 0007.0001) %MON DXC_mean                     =   1.7697236260984E+04
(PID.TID 0007.0001) %MON DXC_sd                       =   8.5552656128781E+03
(PID.TID 0007.0001) %MON DXF_max                      =   2.7798665505088E+04
(PID.TID 0007.0001) %MON DXF_min                      =   6.0647376310612E+01
(PID.TID 0007.0001) %MON DXF_mean                     =   1.7697236260984E+04
(PID.TID 0007.0001) %MON DXF_sd                       =   8.5552656128781E+03
(PID.TID 0007.0001) %MON DXG_max                      =   2.7798731661140E+04
(PID.TID 0007.0001) %MON DXG_min                      =   0.0000000000000E+00
(PID.TID 0007.0001) %MON DXG_mean                     =   1.7697194144702E+04
(PID.TID 0007.0001) %MON DXG_sd                       =   8.5553527331570E+03
(PID.TID 0007.0001) %MON DXV_max                      =   2.7798731661140E+04
(PID.TID 0007.0001) %MON DXV_min                      =   0.0000000000000E+00
(PID.TID 0007.0001) %MON DXV_mean                     =   1.7697194144702E+04
(PID.TID 0007.0001) %MON DXV_sd                       =   8.5553527331570E+03
(PID.TID 0007.0001) %MON YC_max                       =   8.9875000000000E+01
(PID.TID 0007.0001) %MON YC_min                       =  -8.9875000000000E+01
(PID.TID 0007.0001) %MON YC_mean                      =   0.0000000000000E+00
(PID.TID 0007.0001) %MON YC_sd                        =   5.1961474109831E+01
(PID.TID 0007.0001) %MON YG_max                       =   8.9750000000000E+01
(PID.TID 0007.0001) %MON YG_min                       =  -9.0000000000000E+01
(PID.TID 0007.0001) %MON YG_mean                      =  -1.2500000000000E-01
(PID.TID 0007.0001) %MON YG_sd                        =   5.1961474109831E+01
(PID.TID 0007.0001) %MON DYC_max                      =   2.7798731661140E+04
(PID.TID 0007.0001) %MON DYC_min                      =   2.7798731661140E+04
(PID.TID 0007.0001) %MON DYC_mean                     =   2.7798731661186E+04
(PID.TID 0007.0001) %MON DYC_sd                       =   4.6802597353235E-08
(PID.TID 0007.0001) %MON DYF_max                      =   2.7798731661140E+04
(PID.TID 0007.0001) %MON DYF_min                      =   2.7798731661140E+04
(PID.TID 0007.0001) %MON DYF_mean                     =   2.7798731661186E+04
(PID.TID 0007.0001) %MON DYF_sd                       =   4.6802597353235E-08
(PID.TID 0007.0001) %MON DYG_max                      =   2.7798731661140E+04
(PID.TID 0007.0001) %MON DYG_min                      =   2.7798731661140E+04
(PID.TID 0007.0001) %MON DYG_mean                     =   2.7798731661186E+04
(PID.TID 0007.0001) %MON DYG_sd                       =   4.6802597353235E-08
(PID.TID 0007.0001) %MON DYU_max                      =   2.7798731661140E+04
(PID.TID 0007.0001) %MON DYU_min                      =   2.7798731661140E+04
(PID.TID 0007.0001) %MON DYU_mean                     =   2.7798731661186E+04
(PID.TID 0007.0001) %MON DYU_sd                       =   4.6802597353235E-08
(PID.TID 0007.0001) %MON RA_max                       =   7.7276702989699E+08
(PID.TID 0007.0001) %MON RA_min                       =   1.6859188026131E+06
(PID.TID 0007.0001) %MON RA_mean                      =   4.9196033170312E+08
(PID.TID 0007.0001) %MON RA_sd                        =   2.3782534440125E+08
(PID.TID 0007.0001) %MON RAW_max                      =   7.7276702989699E+08
(PID.TID 0007.0001) %MON RAW_min                      =   1.6859188026131E+06
(PID.TID 0007.0001) %MON RAW_mean                     =   4.9196033170312E+08
(PID.TID 0007.0001) %MON RAW_sd                       =   2.3782534440125E+08
(PID.TID 0007.0001) %MON RAS_max                      =   7.7276886894985E+08
(PID.TID 0007.0001) %MON RAS_min                      =   0.0000000000000E+00
(PID.TID 0007.0001) %MON RAS_mean                     =   4.9195916092479E+08
(PID.TID 0007.0001) %MON RAS_sd                       =   2.3782776623264E+08
(PID.TID 0007.0001) %MON RAZ_max                      =   7.7276886894985E+08
(PID.TID 0007.0001) %MON RAZ_min                      =   0.0000000000000E+00
(PID.TID 0007.0001) %MON RAZ_mean                     =   4.9195916092479E+08
(PID.TID 0007.0001) %MON RAZ_sd                       =   2.3782776623264E+08
(PID.TID 0007.0001) %MON AngleCS_max                  =   1.0000000000000E+00
(PID.TID 0007.0001) %MON AngleCS_min                  =   1.0000000000000E+00
(PID.TID 0007.0001) %MON AngleCS_mean                 =   1.0000000000000E+00
(PID.TID 0007.0001) %MON AngleCS_sd                   =   0.0000000000000E+00
(PID.TID 0007.0001) %MON AngleSN_max                  =   0.0000000000000E+00
(PID.TID 0007.0001) %MON AngleSN_min                  =   0.0000000000000E+00
(PID.TID 0007.0001) %MON AngleSN_mean                 =   0.0000000000000E+00
(PID.TID 0007.0001) %MON AngleSN_sd                   =   0.0000000000000E+00
(PID.TID 0007.0001)  MDS_READ_FIELD: opening global file: bathymetry.bin
(PID.TID 0007.0001) // =======================================================
(PID.TID 0007.0001) // Field Model R_low (ini_masks_etc)
(PID.TID 0007.0001) // CMIN =         -8.235744140624998E+03
(PID.TID 0007.0001) // CMAX =         -4.999999999999999E-01
(PID.TID 0007.0001) // CINT =          3.050090422453703E+02
(PID.TID 0007.0001) // SYMBOLS (CMIN->CMAX): -abcdefghijklmnopqrstuvwxyz+
(PID.TID 0007.0001) //                  0.0: .
(PID.TID 0007.0001) // RANGE I (Lo:Hi:Step):(  1079:  1442:     1)
(PID.TID 0007.0001) // RANGE J (Lo:Hi:Step):(   722:   359:    -1)
(PID.TID 0007.0001) // RANGE K (Lo:Hi:Step):(   1:   1:   1)
(PID.TID 0007.0001) // =======================================================
(PID.TID 0007.0001) K =   1
(PID.TID 0007.0001) //                I=1088    I=1098    I=1108    I=1118    I=1128    I=1138    I=1148    I=1158    I=1168    I=1178    I=1188    I=1198    I=1208    I=1218    I=1228    I=1238    I=1248    I=1258    I=1268    I=1278    I=1288    I=1298    I=1308    I=1318    I=1328    I=1338    I=1348    I=1358    I=1368    I=1378    I=1388    I=1398    I=1408    I=1418    I=1428    I=1438
(PID.TID 0007.0001) // |--J--|901234567|901234567|901234567|901234567|901234567|901234567|901234567|901234567|901234567|901234567|901234567|901234567|901234567|901234567|901234567|901234567|901234567|901234567|901234567|901234567|901234567|901234567|901234567|901234567|901234567|901234567|901234567|901234567|901234567|901234567|901234567|901234567|901234567|901234567|901234567|901234567|9012
(PID.TID 0007.0001) //    722 ............................................................................................................................................................................................................................................................................................................................................................................
(PID.TID 0007.0001) //    721 ............................................................................................................................................................................................................................................................................................................................................................................
(PID.TID 0007.0001) //    720 nnnnnnnnnnnnnnnnnnnnnnnnnnnnnnnnnnnnnnnnnnnnnnnnnnnnnnnnnnnnnnnnnnnnnnnnnnnnnnnnnnnnnnnnnnnnnnnnnnnnnnnnnnnnnnnnnnnnnnnnnnnnnnnnnnnnnnnnnnnnnnnnnnnnnnnmmmmmmmmmmmmmmmmmmmmmmmmmmmmmmmmmmmmmmmmmmmmmmmmmmmmmmmmmmmmmmmmmmmmmmmmmmmmmmmmmmmmmmmmmmmmmmmmmmmmmmmmmmmmmmmmmmmmmmmmmmmmmmmmmmmmmmmmmmmmmmmmmmmmmmmmmmmmmmmmmmmmmmmmmmmmmmmmmmmmmmmmmmmmmmmmmmmmmmmmmmmmmmmmmmmmm
(PID.TID 0007.0001) //    719 ooooooooooooooooooooooooooooooooooooooooooooooooooooooooooooooooooooooooooooooooooooooooooooooooooooooooooooooooooooooooooooonnnnnnnnnnnnnnnnnnnnnnnnnnnnnnnnnnnnnnnnnnnnnnnnnnnnnnnnnnnnnnnnnnnnnnnmmmmmmmmmmmmmmmmmmmmmmmmmmmmmmmmmmmmmmmmmmmmmmmmmmmmmmmmmmmmmmmmmmmmmmmmmmmmmmmmmmmmmmmmmmmmmmmmmmmmmmmmmmmmmmmmmmmmmmmmmmmmmmmmmmmmmmmmmmmmmmmmmmmmmmmmmmmmmmmmmmmmmmmm
(PID.TID 0007.0001) //    718 rrrrrrrrrrrrrrrrrrrrrrrrrrrrrrrrrrrrrqqqqqqqqqqqqqqqqqqqqqqqqqqqqqqqqqqqqqqqqqqqqqqqqqqqqqqqqqqqqqqpppppppppppppppppppppppppppppppppppppppoooooooooooooooooooooooooooooooooooonnnnnnnnnnnnnnnnnnnnnnnnnnnnnnnnnnnnnnnnnnnnnnnnnnnnnmmmmmmmmmmmmmmmmmmmmmmmmmmmmmmmmmmmmmmmmmmmmmmmmmmmmmmmmmmmmmmmmmmmmmmmmmmmmmmmmmmmmmmmmmmmmmmmmmmmmmmmmmmmmmmmmmmmmmmmmmmmmmmmmmmmmmmmmm
(PID.TID 0007.0001) //    717 tsssttttttttttttttttttttttttttttttttssssssssssssssssssssssssssssssssssssssssssssssssssssssssssrrrrrrrrrrrrrrrrrrrrrrrrrrrrrrrrrrrrrrqqqqqqqqqqqqqqqqqqqppppppppppppppppppppppooooooooooooooooooooooooonnnnnnnnnnnnnnnnnnnnnnnnnnnnnnnnnnnnnnnnnnnnnnnnnnnnnnnnnnnnnnnnnnnnnnnnmmmmmmmmmmmmmmmmmmmmmmmmmmmmmmmmmmmmmmmmmmmmmmmmmmmmmmmmmmmmmmmmmmmmmmmmmmmmmmmmmmmmmmmmmmmmmm
(PID.TID 0007.0001) //    716 tuuuuuuuuuuuuuuuuuuuuuuuuuuuuuuuuuuuuuuuuuuuuuuuuuuuuuuuuuuuuuuuuuuuuuuuuuttttttttttttttttttttttttttttttttttttttttttttttttttttsssssssssssssssssrrrrrrrrrrrrrrqqqqqqqqqqqqqqqpppppppppppppppppppooooooooooooooooooooooooooooonnnnnnnnnnnnnnnnnnnnnnnnnnnnnnnnnnnnnnnnnnnnnnnnnnnnnnnnnnnnnnnnnnnnnnnnnnnnnnnnnnnnnnnnnnnmmmmmmmmmmmmmmmmmmmmmmmmmmmmmmmmmmmmmmmmmmmmmmmmmmmmm
(PID.TID 0007.0001) //    715 ttttttttttttuuuuuuuuuuuuuuuuuuuuuuuuuuuuuuuuuuuuuuuuuuuuuuuuuuuuuuuuuuuuuuuuuuuuvvvvvvvvvvvvvvvvvvvvvvvvvvvvvvvvuuuuuuuuuuuuuuuuuutttttttttttttssssssssssrrrrrrrrrrrrqqqqqqqqqqqqqppppppppppppppppppppppppppppppoooooooooooooooooooooooooooooonnnnnnnnnnnnnnnnnnnnnnnnnnnnnnnnnnnnnnnnnnnnnnnnnnnnnnnnnnnnnnnnnnnnnnnnnnnnnnnnnnnnmmmmmmmmmmmmmmmmmmmmmmmmmmmmmmmmmmmmmmmmmm
(PID.TID 0007.0001) //    714 ttttttttttttttttttttttttttttttttttttttttttuuuuuuuuuuuuuuuuuuuuuuuuuvvvvvvvvvvvvvvvvvvvvvvvvvvvvvvvvvvvvvvvvvvvvvvvvvvvvvvvvvvvvuuuuuuuuuuttttttttttssssssssrrrrrrrrrrqqqqqqqqqqqqqqqqqppppppppppppppppppppppppppppppppppppppooooooooooooooooooooooooooooooooooooooooooooonnnnnnnnnnnnnnnnnnnnnnnnnnnnnnnnnnnnnnnnnnnnnnnnnnnnnnnnnnnnnnnnnmmmmmmmmmmmmmmmmmmmmmmmmmmmmmmmmmm
(PID.TID 0007.0001) //    713 uuuuuuuuuuuuuuuuuuuuuuuuttttttttttttttttttttttttttttttttttttttuuuuuuuuuuuuuuuvvvvvvvvvvvvvvvvvvvvvvwwwwwwwwwwwwwwwwwwwvvvvvvvvvvvvvvvuuuuuuuuuttttttttsssssssssrrrrrrrrrqqqqqqqqqqqqqqqqqqqqqqqqqqqqqqqqqppppppppppppppppppppppppppoooooooooooooooooooooooooooooooooooooooooooooooooooonnnnnnnnnnnnnnnnnnnnnnnnnnnnnnnnnnnnnnnnnnnnnnnnnnnnnnnnnnnmmmmmmmmmmmmmmmmmmmmmmmmmm
(PID.TID 0007.0001) //    712 vvvvvvvvvvvvvvvvvvvwwwwwvvvvvvvvvvvvuuuuuuuuuuuttttttttttttsssssttttttttttuuuuuuuuuuuvvvvvvvvvvvvvwwwwwwwwwwwwwwwwwwwwwwwwwwwwwvvvvvvvvvvvvuuuuuuuuuttttttttttsssssssssrrrrrrrrrrrrrqqqqqqqqqqqqqqqqqqqqqqqqqqqqqqppppppppppppppppppppppppppppoooooooooooooooooooooooooooooooooooooooooonnnnnnnnnnnnnnnnnnnnnnnnnnnnnnnnnnnnnnnnnnnnnnnnnnnnnnnnnnnnnmmmmmmmmmmmmmmmmmmmmmmm
(PID.TID 0007.0001) //    711 vvvvvvvvvvvwwwwwwwwwwwwwwwwwwwwvvvvvvvvvvvvvvuuuuutttttttsssssssssssssstttttttttttuuuuuuuuuuuvvvvvvvvvvvvvvwwwwwwwwwwwwwwwwwwwwwwwwwwwvvvvvvvvvvvvvuuuuuuuuuuuttttttttttssssssssssrrrrrrrrrrrrrrrrrqqqqqqqqqqqqqqqqqqqqqqpppppppppppppppppppppppppppooooooooooooooooooooooooooooooonnnnnnnnnnnnnnnnnnnnnnnnnnnnnnnnnnnnnnnnnnnnnnnnnnnnnnnnnnnnnnnnnnmmmmmmmmmmmmmmmmmmmmmmm
(PID.TID 0007.0001) //    710 vvvvvvvvvvvvvvvvvvvvvvvvvvvvvvvvvvvvvvvvvvvuuuuuuttttttsssssssssssssssssssssstttttttttttttttuuuuuuuuuuuuuuvvvvvvvvvvvvwwwwwwwwwwwwwwwwwwwwwwwwwvvvvvvvvvvvvvuuuuuuuuuutttttttttsssssssssssssrrrrrrrrrrrrrrrrqqqqqqqqqqqqqqqqqqqqqqqqqppppppppppppppoooooooooooooooooooooonnnnnnnnnnnnnnnnnnnnnnnnnnnnnnnnnnnnnnnnnnnnnnnnnnnnnnnnnnnnnnnnnnnnmmmmmmmmmmmmmmmmmmmmmmmmmmmmmmm
(PID.TID 0007.0001) //    709 ttuuuuuuuuuuuuuuuuuuuuuuuttuuuuuuuuttttttttttttttttsssssssssssssssssssssssssssssssssstttttttttttttttttttttuuuuuuuuvvvvvvvvvvwwwwwwwwwwwwwwwwwwwwwwwwwwwvvvvvvvvvvuuuuuuuuttttttttttttsssssssssssssssrrrrrrrrrrrrrrqqqqqqqqqqqqqqqqqqqppppppppppppooooooooooooooonnnnnnnnnnnnnnnnnnnnnnnnnnnnnnnnnnnnnnnnnnnnnnnnnnnnnnnnnnnnnmmmmmmmmmmmmmmmmmmmmmmmmmmmmmmmmmmmmmmmmmmmmmmm
(PID.TID 0007.0001) //    708 sstttttttttttttttttttttssssssssssssssssssssssssssssssssssssssssssssssssssssssssssssssssssttttttttttttttttttuuuuuuuvvvvvvvvvvvwwwwwwwwwwwwwwwwwxxxxxwwwwwwwwwvvvvvvvuuuuuuuuttttttttttttttsssssssssssssrrrrrrrrrrrrqqqqqqqqqqqqqppppppppppppppoooooooooooooooonnnnnnnnnnnnnnnnnnnnnnnnnnnnnnnnnnnnnnnnnnnnnnnnnnnnnnnnnnnmmmmmmmmmmmmmmmmmmmmmmmmmmmmmmmmmmmmmmmmmmmmmmmmmmmm
(PID.TID 0007.0001) //    707 ssssssssssssssssssssssssssssssssssssssssssssssssssssssssssssssssssssssssssssssssssttttttttttttttttttttuuuuuuuuvvvvvvvvvvwwwwwwwwwwwwwwxxxxxxxxxxxxxxxxxwwwwwvvvvvvvuuuuuuuuuttttttttttttsssssssssrrrrrrrrrrrrrqqqqqqqqqqqqqpppppppppppppooooooooooooooooooooonnnnnnnnnnnnnnnnnnnnnnnnnnnnnnnnnnnnnnnnnnnnnnnnnnnnnnnnnnnmmmmmmmmmmmmmmmmmmmmmmmmmmmmmmmmmmmmmmmmmmmmmmmnnnnn
(PID.TID 0007.0001) //    706 ssssssssssssssssssssssssssssssssssssssssssssssssssssssssssssssssssssssssstttttttttttttttttttttuuuuuuuuuvvvvvvvvvwwwwwwwwwwwxxxxxxxxxxxxyyyyyyyyyyyxxxxwwwwvvvvvvuuuuuuuuuutttttttttttssssssssrrrrrrrrqqqqqqqqqqqqqqqqqqqppppppppppppppoooooooooooooooooooooooooooonnnnnnnnnnnnnnnnnnnnnnnnnnnnnnnnnnnnnnnnnnnnnnnnnnnnnnnmmmmmmmmmmmmmmmmmmmmmmmmmmmmmmmmmmmmmmmmmnnnnnnnnnn
(PID.TID 0007.0001) //    705 tttttttttssssssssssssssssssssssssssssssssssssssssttttttttttttttttttttttttttttttuuuuuuuuuuuuuuvvvvvvvvvwwwwwwwwwwwwwxxxxxxxxyyyyyyyyyyyyyyyyyyyyyyyyxxxwwvvvvuuuuuuuuutttttttttsssssssssrrrrrrrrqqqqqqqqqqqqqqqqqqpppppppppppppppppppppppppppppppppppppppppppppoooooooooooooooooooooonnnnnnnnnnnnnnnnnnnnnnnnnnnnnnnnnnnnnnnnnnnnmmmmmmmmmmmmmmmmmmmmmmmmnnnnnnnnnnnnnnnnnnnn
(PID.TID 0007.0001) //    704 ttttttttttttttttttttttttttttttttttttttttttttttttttttttttttttttuuuuuuuuuuuuuuuuuvvvvvvvvvvvvwwwwwwwwwwwxxxxxxxxxxxxxxxxyyyyyyyyyyyyyyyyyyyyyyyyyyyyxxxwwvvvuuuuuuttttttttssssssssrrrrrrrrqqqqqqqqqqqqqqqqqqqqqqqqqqqqqqqqqqqqqqqqqqqqqqqqqqpppppppppppppppppppppppppppppppppppppppppppppppppppoooooooooooooonnnnnnnnnnnnnnnnnnnnnnnnnnnnnnnnnnnnnnnnnnnnnnnnnnnnnnnnnnnnnnnnn
(PID.TID 0007.0001) //    703 uuuuuuuuuuuuuuuuuuuuuuuuuuuuuuuuuuuuuuuuuttttttttttuuuuuuuuuuuuuuvvvvvvvvvvvvwwwwwwwwwwwwxxxxxxxxxxxxxxxxxxxxxxxxxxxxyyyyyyyyyyyyyyyyyyyyyyyyxxxxxwwwvvvuuutttttttssssssssssrrrrrrrqqqqqqqqqqqqqqqqqqqqqqqqqqqqqqqqqqqrrrrrrrrrrrrrrrrrrqqqqqqqqqqqqqqqqqqqrrrqqqqqqqrrrrrrrrrrrrrrrrrrrrrrrrrrrrrrrrrrrrrrrrrrrqqqqqqqqqppppppppppppoooooooonnnnnnnnnnnnnnnnnnnnnnnnnnnnnnn
(PID.TID 0007.0001) //    702 uuuuuuuuuuuuuutttttttttttuuuuuuuuuuuuuuuuuuuuuuuuuuuuuuuuuvvvvvvvvvvvwwwwwwwwwwxxxxxxxxxyyyyxxxxxxxxxxxxxxxxxxxxxxxxxxxyyyyyyyyyyyyyyyyxxxxxwwwwwwvvvvuuuuttttsssssssssssrrrrrrrrrrrqqqqqqqqqqqrrrrrrrrrrrrrrrrrrrrrrrrrssssssssssssssssssssssssssssssssssssssssssssstttttttttttttuuuuuuuuuvvvvvvvvvvwwwwvvvvvvvuuutttssssrrrqqqqqqpppppooooooonnnnnnnnnnnnnnnnnnnnnnnnnnnoo
(PID.TID 0007.0001) //    701 vvvvvuuuuuuuuttttttttttttttttttttttttuuuuuuuuuuuuuuuuuvvvvvvvvvvvvvvwwwwwwwwwxxxxxxxyyyyyyyyyyxxxxxxxxxxxxxxxxxxxxxxxxxxxxxxxxxxxxxxxxxxxwwwwwvvvvvvuuuuutttttsssssssssssssssrrrrrrrrrrrrrrrrrrrrrsssssssssssssssssssssssssttttttttttttttttttttttttttttttuuuuuuuuuvvvvvvvvvvvvwwwwwwwwwwxxxxxxxxxxxxxxxxxxwwwvvvuuttsssrrrqqqqqpppppooooonnnnnnnnnnnnnnnnnnnnnnnnnnooooooopp
(PID.TID 0007.0001) //    700 vvvvvvvuuuuuuuuuttttttttttttttttttuuuuuuuuuvvvvvvvvvvvvvvvvvvvvvvvvvvvvvwwwwwwwwwwxxxxxxyyxxxxxxxxwwwwwwwwxxxxxxxxxxxxwwwwwwwwwwwwwwwwwwwwwvvvvvvvvvvvuvvuuuuuuuttttttttttttttttssssssssssssssstttttttttttttttttttttttttttuuuuuuuuuuvvvvvvvvvvvvvvvvvvvvwvvvvvwwwwwwwwwwwwxxxxxxxxxxxxxxxxxxxxxxxxxwwwvvvuuttssrrrqqqqpppppppoooooooonnnnnnnnnnnnnnnnnnnnnnnnnoooooooppppppq
(PID.TID 0007.0001) //    699 vvvvvvvvuuuuuuuuuuuuuuuuuuuuuuuuuuuuuvvvvvvvvvvvvvvvvvvvvvvvvvvvvvvvvvvvvvvwwwwwwwwwwwwwwwwwwwwwwwwwwwwwwwwwwwwwxxwwwwwwwwwwwwwwwwwwwwwwwwwwwwwwwwwwwwwwwwwwwwwwwwwwvvvvvvvvvvvvuuuuuuuuuuuuuuuvvvvvuvvuuuvvvvvvvvvvvvvvvvwwwwwwwwwwwxxxxxxxxxxxxxxxxxxxxxxwwwwwwxxxxxxxxxxxxxxxxxxxxxxxxxwwwvvvuuttssrrrqqqppppoooooooooonnnnnnnnnnnnnnnnnnnnnnnnnnnnnnoooooppppppqqqqqqqqq
(PID.TID 0007.0001) //    698 vvvvvvvvvvvvvvuuuuuvvvvvvvvuuuuuuuuvvvvvvvvvvvvvvvvvvvvvvvvvvvvvvvwwwwwwwwwwwwwwwwwwwwwwwwxxxxxxxwwwwwwwwwwwxxxxxxxxwwwwwxxxxxxxxxxxxxxxxxxxxxxxxxyxxxxxxxxxxxyyyyyyxxxxxxxxxxxxxxxxxxxxxxxxxxxxxxxxxxxxwxxxxxxxxxxxxyyyyyyyyyyyyyyyyyyyyyyyyyyyyyyyyyyyyxxxxxxxxxxxxxxxxxxxxxxxxwwwwvvuuuttssrrqqqpppoooonnnnnnnnnnnnnnnnnnnnnnnnnnnnnnnnnnnooooooooooopppppqqqqqqqqqqqqqqq
(PID.TID 0007.0001) //    697 vvvvvvvvvvvvvvvvvvvvvvvvvvvvvuuuuvvvvvvvvvvvwvvvvvvvvvvvvwwwwwwwxxxxxxxxxxxxxxxxxxxyyyyyyyyyyyyyyyyyyyyyyyxxxxxxxxxxxxxxxxxyyyyyyyyyyyyyyyyyyyyyyyyyyyyyyyyyyyyyyyyyyyyyyyyyyyyyyyyyyyyyzzzzzzzzzzzzyzzyyyyyyyyyyzzzzzzzzzzzzyyyyyyzzzzzzzzzzzzzzzzzzyyyyyyyyyyyyyyyyyyyyxxxxxxwwvuutssrrrrqqqppppoooonnnnmmmmmnnnnnnnnnnnnnnnnnnnnnnoooooooopppppppppqqqqqqqqqqqqqqqqqppppp
(PID.TID 0007.0001) //    696 vvvvvvvvvvvvvvvvvvvvvvvvvvvvvvwwwwwwwwwwxxxxxwwwwwwwwwwwwwwxxxyyyyyyyzzzzzzzzzzzzzzzzzzzzzzzzzzzzzzzzzzzzzzyyyyyyyyyyyyyyyyyyyyyyzzzzzzzzzzzzzzzzzzzzzzzzzzzzzzzzzzzzzzzzzzzzzzzzzzzzzzzzzzzzzzzzzzzzzzzzzzzzzzzzzzzzzzzzzzzzzzzzzzzzzzzzzzzzzzzzzzzzzzzzzzzzzzzzzzzzzzzyyyyyyyxxwvutssssrrrrqqqpppppoonnnnnnnnnnnnnnnnnnnnnnnnooooooooopppppqqqqqqqqqqqqqqqqqqqqqqpppoooopp
(PID.TID 0007.0001) //    695 vvvvvvvvvvvvvvvvvvvvvwwwwwwxxxxxyyyyyyyyyyyyyyyyyyxxxxxxxxxyyyyzzzzzzzzzzzz+++++++++++zzzzzzzzzzzzzzzzzzzzzzzzzzzzzzzzzzzzzzzzzzzzzzzzzzzzzzzzzzzzzzzzzzzzzzzzzzzzzzzzzzzzzzzzzzzzzzzzzzzzzz+zzzzzzzzzzzzzzzzzzzzzzzzzz++++++++++++++++++++++++++++++++++++++++++zzzzzzzzzzzzzzyyyyxxwvvuutssrrrrrrqqqppooooooooooooonooooooooooooooppppppqqqqqqqqqqqqqqqqqqqqqqqppppppppqqq
(PID.TID 0007.0001) //    694 vvvvvvvvvvwwwwwwwwwxxxxyyyyyyyyyzzzzzzzzzzzzzyyyyyyyyyyyyyyyzzzzzzzzzz+++++++++++++++++zzzzzzzzzzzzzzzzzzzzzzzzzzzzzzzzzzzzzzzzzzzzzzzzzzzzzzzzzzzzzzzzzzzzzzzzzzzzzzzzzzzzzzzzzzzzzzzzzzzzzzz++zzzzzzz+++++++++++....+................................+......+++++++++++++++zzzzzzzzzyyxwvuttttttttssrqqqqppppooooooooooopoooooppppppppqqqqqqqqqqqqqqpppppppppppppqqqqqqqqq
(PID.TID 0007.0001) //    693 vvwwwwwxxxxxxyyyyyyyyyzzzzzzzzzzzzzzzzzzzzzzzzzzzzzzzzzzzzzzzz++++++++++++++++++++++++++zz++z+zzzzzzzzzz++++++++++++++zzzzzzzzzzzzzzzzzzzzzzzzzzzzzzzzzzzzzzzzzzzzzzyyzzzzzzzzzzzzz+++++++++......++++++++++++++++++...................++..++++++++++++.++++++++++++++++++++++++++++++zzzyxxwwwwxxxxwvuuttssrqqppppppppqqqqqpppppppppppppppppqqqqppppooppqqrrrrrqqqqqrrrqqpp
(PID.TID 0007.0001) //    692 xxxxyyyyyyyyzzzzzzzzzzzzzzzzzzzzzzzzz++++++..+++++++++++.........++++.......++................+++++++++++++++++++++++++zzzzzzzzzzzzzzzzzzzzzzzzzzzzzzyyyyyyyyyyyzzzzzzzzz++++++++++++++++++++++++++.........+++............++++++++.................................++++++++++++++++++++zzzyyyyyzzzzzyyxxxwvutsrrrrrrrrrrrrrrrqqqqqqppppppooooopppppppqqrssttttsrrrrrrrrqqpp
(PID.TID 0007.0001) //    691 zzzzzzzzzzzzzzzzzzzzz+++++zzzzzzz++++++..++..++........++++............................++++++..............++++++++zzzzzzzzzzzzzzzzzzzzzzzzzzyyyyyyyyyyyyyyyyyzzzzzzzzzz+++++++.+++++++...........+..++++++........................................................................+++++++zzzzzzzzzzzzzzzzzyyxxwvvuuuuuuuuttttssrrrqqqqpppooooooooopppqqrrsssssrrrqqqrrrrrqq
(PID.TID 0007.0001) //    690 zzzzzzzzzzzzzzzz++++..++++++++++....................................................................................+++zzzzzzzzzzzzzzzzzzzzzzzzzzzzzzzzzzzzzzz+.......++++++++++.......++++..............++....................................................................+++++++++++++++++++zzzzzzzzzzzzzzzyyxxxxxxxwwwvvutssrrrqqqpppooooooooooopppqqqqrqqqqqqqrrsrrr
(PID.TID 0007.0001) //    689 zz++++++++++++++++...........++++++++++..........................................................................++zzzzzzzzzzz+++++z..............++++..+++++++++...........+++++++++.+.........................................................+++++++++++.++..++++...+++.+..+++++++++.+++++++++++++++++++++++++++zzzzzzzyyyyxxwwvuttsrrqqqqpppooonnnnoooppqqqqqqqqqqqqqqqq
(PID.TID 0007.0001) //    688 ++++++.......++....+.++...................+++...............................++++++.+++....................++++zzzzzzzzzz+.++++++...................+++....++++++++++.................................................................++++++++......+..............................++..+++++++++++++++++++++++.++++++++++++zzzzzzzyyyxxwvvutssrqqppoonnnnoopppqqqqqqqqqqqqqqq
(PID.TID 0007.0001) //    687 ++....................................................................+++............++++.+++++++++++++++zzzzzzzzzzzz+.........+++.+..............++............+++..................................................................++.......................++++++++.................++++++++++++....................++++++++++++zzzzzyyxwuutsrqppooooooooppppqqqrrrssssss
(PID.TID 0007.0001) //    686 +++++.............................................+++++.................................++++++++.....++zzzzzzzzzzzzz++...............+++........................................................................................................................................++++................................++++++++++++++++++++zzzzyxwvusrqqppoooooooopppqrrrsstttt
(PID.TID 0007.0001) //    685 +...........++++++++...+++++..++...........+++++.................................+++...........++++++++++++++....++++++.....................................................................................................................................................+.+++............................++++++++++++++++++++++++++++zzzzzzyxwvusrqqppoooooooppqqrrrsttt
(PID.TID 0007.0001) //    684 +zzz+..........++++.........++.............++++++++++.....................................++++++++zz+++.....+++...........................................................................................................................................................++..............................++++++++++++++++++++++++++++zzzzzzzzzzzzyxvutsrqppoonnnoopqqrrsstt
(PID.TID 0007.0001) //    683 ++++++zzzz++++++..+.......+++++..+++++++++++++++++....................................+++++zzzzz++++......................................................................................................................................................................................++..+.+++++++++++++++++++++++++++zzzzzzzzzzzzzzzzzzzzzzzzzywvtsrqqppoonnoopqqrrrrs
(PID.TID 0007.0001) //    682 ....++++..+++++++++++++++++zz+++++++............................................+++++++zzzzz++.........................................................................................................................................................................................................+++++++++++++++++zzzzzzzzzzzzzzzzzzzzzzzzzzzzyywvutsrrqqpppooopppqqrr
(PID.TID 0007.0001) //    681 .....+++++++++++...........++++++.......................................+++++++++++++zzzzzzz++.++...+.+++..........................................................................................................................................................................................++++++++++++++++++zzzzzzzzzzzzzzzzzzzzzzzzzzzzzzzyyxwvuuttsssrrqqqqqqqqqr
(PID.TID 0007.0001) //    680 ...........+++++...++...........++++..........................+++++++......+++++++zzzzzzzzzzzz++++++++.................................................................................................................................................................................+++.......+++++++++++++++++++zzzzzzzzzzzzzzzzzzzzzzzzzzzzzzzzzyyxxwvutttttssrrrrrrrqq
(PID.TID 0007.0001) //    679 ............++++++++++............+++++++++.........................+++++++++++zzzzzzzzzzzzzzzzzzzzzzz+....................................................................................................................................................................................+++++++++++++++++++++++zzzzzzzzzzzzzzzzzzzzzzzzzzzzzzzzzzzyyyxwvvuuttttssssrrrrrr
(PID.TID 0007.0001) //    678 ....................++++.........................+++++.++++.+++++++++++zzzzzzzzzzzzzzzzzzzzzzz++zzz+++......................................................................................................................................................................................++++++++++++++++++++zzzzzzzzzzzzzzzzzzzzzzzzzzzzzzzzzzzyyyyxxwvvuuttttsssssssrrr
(PID.TID 0007.0001) //    677 ..........+.....+++++++++++....................+++....++++....+++++zzzzzzzzzzzzzzzzzzzzzzz+++++++++......................................................................................................................................................................................+++++++++.++++++zzzzzzzzzzzzzzzzzzzzzzzzzzzzzzzzzzzzzzzzzzyyyyxxwvvuuttttssssssssss
(PID.TID 0007.0001) //    676 ........++..+++++++++++++++++++..++.............+++......+++++++++zzzzzzzzzzzzzzzzzz+++..............................................................................................................................................................................................++....+++++++++++zzzzzzzzzzzzzzzzzzzzzzzzzzzzzz++++zzzzzzzzzzzzzyyyxxwvuutttsssssssssss
(PID.TID 0007.0001) //    675 ++....++++++++........++......+++.............................+zzzzzzzzzzzz++++......................................................................................................................................................................................................+.....+++++++++zzzzzzzzzzzzzzzzzzzzzzzzzzzzzzz+++++++zzzzzzzzzzzzzzyxwvuttsssssssssssss
(PID.TID 0007.0001) //    674 ..+++..+++++.....++..+++....................................+zzzyyyzzzz+............................................................................................................................................................................................................++.....+++++++++zzzzzzzzzzzzzzzzzzzzzzzzzzzzz+++++++++++zzzzzzzzzzzyxwvuttssssrrrrrrrrss
(PID.TID 0007.0001) //    673 zzzzzz+++++z++++++++++.+++............................++++++zzzzyyyyyzz+..............................................................................................................................................................................................................++..+++++++++++zzzzzzzzzzzzzzzzzzzzzzzzzzz++++++++++++zzzzzzzzzyyxwvutsssrrrrrrrqqqrrr
(PID.TID 0007.0001) //    672 zzzzzzzzzz++++++++++++++.....+++................++++++++zzzzzzzzyyyyzzzz+++++..+++.....................................................................................................................................................................................................++++.++++++++++zzzzzzzzzzzzzzzzzzzzzzzzz+++++++++++++zzzzzzzzzyyxwutsssrrrrqqqqqqqqqq
(PID.TID 0007.0001) //    671 +zzzzzzzz+.......+++++++....++...+++..............++++zzzzzzzzzzyyyzzzz+++++++++++++...+....++++......................................................................................................................................................................................++++++++++++++zzzzzzzzzzzzzzzzzzzzzzzzzz+++++++++++++zzzzzzzzzzyxxwvutsssrrqqqqqqqqqqq
(PID.TID 0007.0001) //    670 ..++++zzzzz+++.....++++++++........++++......++++zzzzzzzzzzzzzzyyyyzzzz+++++++++++zzzzz+++++++++......................................................................................................................................................................................++++++++++++++zzzzzzzzzzzzzzzzzzzzzzzzzz+++++++++++++zzzzzzzzyyxxwvvuutsssrrqqqqqqqqqq
(PID.TID 0007.0001) //    669 ++++zzzz+++++++...................+.....++...+++zzzzzzzzzzzzyyyyyyyyzzzzzzzyyz+........++..+++.++...............................................................................................................................................................................................+++zzzzzzzzzzzzzzzzzzzzzzzzzzz+++++++++++zzzzzzzzyyxxwwvvvuuttttssrrqqqqqqqq
(PID.TID 0007.0001) //    668 +++++.........................................++..+++zzzzzzzzyyyyyyyzzzzzzzzyyy.+++...................................................................................................................................................................................................+++++++++.+++zzzzzzzzzzzzzzzzzzzzzzzzzzz+++++++++zzzzzzzyyyxwwvvuuttttsssrrrrrqqqqqqqq
(PID.TID 0007.0001) //    667 ..++...+...+...++........+.+++.++++..............++++++zzzzzzzyyyyyyyzzzzzzzzyyzzz++++++++.......................................................................................................................................................................................+++..+++++zz+++++zzzzzzzzzzzzzzzzzzzzzzzzzzzzz++++++zzzzzzyyxxwvvuuuttsssrrrqppppppqqqrqqqq
(PID.TID 0007.0001) //    666 ++++++++++++++++++++.+++++zz+z++zzzzzz+.....+++++++++++zzzzzzzzzzzzzzzzzzzzzyyyyyzz+....................+..+++......................................................................................................................................................................++++++++zz++++zzzzzzzzzzzzzzzzzzzzzzzzzzzzzzzzzzzzzyyyxwwvvuuttsssrrrqqqppoooopppqqrrrrr
(PID.TID 0007.0001) //    665 ++++++++++++++zzzzzzzzzzzzzyzzzzzzzzzzzzzzzzz++++++zzzzzzzzzzzzzzzzzzzzzzzzzzyyyyyzzzzz+....++++zzz.+++++zzzzzzzzzzz+++...............................................................................................................................................................++..+++z+++zzzzzzzzzzzzzzzzzzzzz+++zzzzzzzzzzyyyxwwvuuuttssrrrrqqqqpppppoooppppqqrrsss
(PID.TID 0007.0001) //    664 ..++++++++++++zzzzyzzzzyyzzzzzzzzzzzzzzzzzyyzzz+zzzzzzzzzzzzzzzzzzzzzzzzzzzzyyyyyyyzzzzzzz+++zzzzzzzzzzzzzzzzyyyyyyzzzzzzzz++.............................................................................................................................................................++++zzzzzzzzzzzzzzzzzzzzzzz+++++zzzzzzyyxxwvuuttsssrrrqqqqqqppppppppppppppppppqrst
(PID.TID 0007.0001) //    663 ...++++++++++++++zzzz+++............++++zzzzzzzzzyyzzzzzzzzzzzzzzyyyyyyyyyyyyyyyyyyyyyyyzzzzzzzzzzzzzzzzzzzzzzzyyyxyyyyzzzzzzz++..................................................................................................................................................+........++++++++zzzzzzzzzzzzzzzzzzzzzzzzzyyxxwvuttssrrrqqqqqqqpppppppppppppppppppooooppqr
(PID.TID 0007.0001) //    662 ................+.++.......................+zzzyyyyzzzzzzzzzzzyyyyyyyyyyyyyyyyyyyyyyyyyyyyyyzzzzzzzzzzzzzzz++zzyyyxxxxyyyzzzzzzz+.......................................................................................................................................................++..++++++++++zzzzzzzzzzzz+++zzzzyyxwvuttsrrrqqqqqpppppppppppppppppppppppppooooooppp
(PID.TID 0007.0001) //    661 .........................................++++zzyyyzzzzzzzzzzzyyyyyyyyyyxxxxxxxxxxxxxxxxxxxxxxxxxyyyzzzzzzzzzzzzzzyyxxxxyyyyzzzzzz+..................................................................................................................................................+++++++++z+..+++++zzzzzzz++zz++++zyxwwvuttssrqqqqqqpppppppppppppppppppppppppppppoooopppo
(PID.TID 0007.0001) //    660 .....+++...................++...........+++++zzyyyzzzzzzzzzyyyyyyxxxxxxxxxxxxxxwwwwvvvvvvvvuuuuvvwwxxyzzzzzzzzzzzzyyyxxyyyyzzzzzzzz++++...............................................................................................................................................++++++zzzzzzzzzzzzz+zz+++++zzyxwvuttssrrrqqqqqqpppppppppppppppppppoooppppppppppppppppp
(PID.TID 0007.0001) //    659 ++..++++...........+.+.....+zz..........++zzyyyyyyyyyyyyyyyyxxxxxxxxxxxxxxxxwwwwvvvvvuuuuuutttttttuuwxxyyzzzzzzzzzzyyyyyyyyyyyzzzzzz++++.............................................................................................................................................+++++++zzzzzzzzzzzz++zz++zzyxvuutssrrrrqqqqqqqqqpppppppppppppppppoooooppppppppppppppppp
(PID.TID 0007.0001) //    658 +++++++zzzzzzzzzzzzzzzzzzyyyyyyyyyyyyyyyzyyyyyxxxxyxxxxxxxxxxxxxxxxxxxxxxxxxwwwvvvvuuuuuuttttttttttuvwxxyyyyyyyyyyyyyyyyyyyyyzzzzzzzz+++.........................................................................................................................................+++..+++...+zzzzzzzzzzz++zzzzyxwutsssrrrrrqqqqqqqqqqqppppppppppppppoooooooppppppppppppppppp
(PID.TID 0007.0001) //    657 ++zzzzzzzzzzzzzzzzzzyyyyyyyyyyyyyyyyyyyyyyxxxxxxxxxxxxxxxxxxxxxxxxxxxxxxxxxwwwwvvvvuuuuutttttttttttuwxyyyyyyyyyyyyyyyyyyyyyyzzzzzzzzz++++......................................................................................................................................+++++++++z+zzzzzzzzzzzzzzzzyyxxxvuttsssrrrrrqqqqqqqqqqqpppppppppppppooooooopppppppppppppppqpp
(PID.TID 0007.0001) //    656 +zzzzzzzzzzzzzzz++zzzzzzzyyyyyyyyyyyyyyyyyyyxxxxxxxxxxxxxxxxxxxxxxxxxxxxxxxwwwwvvvuuuuutttttttttttttvwxxyyyyyyyyyyyyyyyzzzzzzz++zzzzz++.+++.......................................................................................................................++..................++++zz+zzzzzzzzzzzzxxwwwvuttssssrrrrrrqqqqqqqqqqqqqppppppppppppppppppppppqqqqqqqqqqqqq
(PID.TID 0007.0001) //    655 zzzzzzzzz+..........++zzzzz+++.....++z+....++++++zzzyxxxxxxxxxxxxxxxxxxxxxwwwwwvvvuuuuuttttttttttttuvwwxxxyyyyyyyyzzzzzzzzzzz+++zzyzzz+++++..........................................................................................................................++++z..++++..+....+++++zzzzzzzzzzzzxxwwvuuttsssssrrrrrrrrrrrqqqrtsrqqqqpppppppppqqqqqrrrqrrqqqqrqqrqqqq
(PID.TID 0007.0001) //    654 zzzzzz+..........+zyyzz+..++........+++..............+zzxxxxxxxxxxxxxxxxxxwwwwwvvvuuuuutttttttttttttuvwwwwxxyyyyzzzzzzzzzzzzzzzzzyxxyzz++++++...............................................................................................................+++....+++.++++zz++..++zzzzzzzzzzzzzzzzzzzzzyxwvutttsssssrrrrrrrrrrrrrrrssrqqqqqqqqqqqqqrrrrrrrrrrqqqqqqqqqrrsrs
(PID.TID 0007.0001) //    653 zzzzz...........+zyy+++++..............+z+.............++zzyxyyyxxxxxxxxxxxwwwwvvvuuuutttttttttttttttuuvvwwwxyyyyzzzzzzzzzzzyyyyyyyyyyz++++++...............................................................................................................++.+..++.++.....++zzzzzz+zzzzzzzzzzzzzzzzzzzywvuttttsssssrrrrrrrrrrrrrrrrrrrrrrrrrrrrrrrrrrrrrrrrrrqqqqqqrrrqrrr
(PID.TID 0007.0001) //    652 zzzz+.........++zzz+.++++..............++++...++zzzzzz+.+zzzyyyyxxxxxxxxxxxwwwvvvuuuuutttttttttttttttttuuuuvvwwxxyyyyyyyyyyzyyzzz+++zzz+++++++..............................................................................................................++++..+++++z...+++...+++zzzzzzzzzzzzzzzzzzzzywvutttttsssssssssssrrrrrssssssssssssssssssrrrrrrssrrrrrrrrrrrrrrrrr
(PID.TID 0007.0001) //    651 zz++..........++zzz+...................++zzzzyyz++.....+zzzzyyzyzyyyxxxxxxxwwwwvvuuuuutttttttttttttttttttttttuuvvwwxxyyyyyzzzzzz++++++++++++++..................................................................................................................+.....+z+.....++++++zzzzzzzzzzzzzzzzzzzywvvuuutttttttttttttsssssssssssssssssssssssssrrrrrrrrrrsrrrrsrqrsrrss
(PID.TID 0007.0001) //    650 z++.............+++++++.............++++z++++++++............+++++zzzyyxxxxxwwvvvuuuuutttttttttttttttttttttttttttuuvwxyyyzzzzzzzzzzzzzzzzz++.+...++...............................................................................................................++++++zzz++..+++++zzzzzzzzzzzzzzzyxwwwvvvuvuvvvvuuuuuuvvvuuuttttttsssssssssssssstssssssrrrrrrrrssttttttttu
(PID.TID 0007.0001) //    649 z+++...........+++++..................+++++..++++...++...++.++++++++zzzzyxxxwwvvvuuuuuttttttttttttttttttttttttttttuuvvwxyyzzzzzzzzzzzzzzzz++++.+..++..................................................................................................++..................++zzz+++zzzzzzzzzzzzzzzxwwvvvvvvvwwwvvvvutttttttttttttttttssssssssssssttssssssssrstttttttttutttttr
(PID.TID 0007.0001) //    648 ++..............++++..................+.......+++++.......++....+zzzzyyyzzzzyxxwvwvuuuutttttttttttttttttttttttttttuuuvvwxyyzzzzzzzzzzz+++z+++++......++..................................................................................................++...................++zzzzzzzzzzzzzzzyxwwvvvvvvvvwwwwwwwwwwvuutttttttssssssssssssssttttttstttttuutuuuvutssrstttttt
(PID.TID 0007.0001) //    647 ++................++........................................++++.++zzz++++++zzzzyyxxvvuuutttttttttttttttttttttttttuuuvvwxyyyzzzzzzzzzz+zz+++......++.++++++.................................................................................................++...+...........+.+++zzzzzzzzzzzzywwwvvvvvvvvvwwxxwwvvvvvuttssssttttttvvuuuuttsstuutttuttuuutstuttuuuututtsttss
(PID.TID 0007.0001) //    646 +++...........................................................++++.++++.....++zyzzzzzzxxwvvvuuuttttttttttttttttttuuuuvwxxyyyzzzzzzzzzzzzzz+++++++++zz+...+.........................................................................................................+++++.......++.++zzzzzzzzzywvvvvvvvvvvvvvwvvvvwwwwwxwvwvwxywwwwvuutttttuvwwwwwwwvttttttuuuuuutttttssrrrrq
(PID.TID 0007.0001) //    645 ++++++++++++....+++++.............................................+......+++zzzzz+++++zzzzyxwvvuuutttttttttttttttuuuvvwxxyyzzzzzzzzzzzzzzzzzzzzzzz+.zzzz+++......................................................................................................++++zzz+........+++zzzzzzzzywvvvvvvvvvvvvvxvvvwwxyyxyzyxxwwwwwwwwxyzyyyzzyvtuvuttuwwwvvuttttttsssrsrrrrqqqq
(PID.TID 0007.0001) //    644 +++++..................................................................+++++++.zzz+z+zzz+++zyxwvvvuutttttttttttttuuvvwxxyyyzzzzzzzzzzzzzyyyyyyyyzzzzyyyyz+++..............................................................................................++++.+....+zzzz......+..++zzzzzzzyxvvvvvvvvvvwvvvvvvvuvwwxwyyxxxxwwxwwwwxyyz+++zzywwwwwvttuttuutstutsrqqqrrqqqqqqq
(PID.TID 0007.0001) //    643 z+++++.................................................................+++.+++++++++.+++++zzzzzyxwvvuuttttttttttuuuvwxxyyyyyyyyyyyyzzzzzzzzzzzz++.......+++++++...................................................................................................+++zyyzz+....++.++zzzzzzzzyxwvvvvvvvwwwxwwwwuuwvuuuwwwwyxxyxwwxxyyyzz+zzyxuuuutttttutsrqqrrqqrqrrrqqqqqqqq
(PID.TID 0007.0001) //    642 z+++++++++...+++...........................+.+++.............................+........+++++++++zzzyxwvuutttttttuuuuvwwxyyyyyyzzzzzzzzzzzzz+++++++++++.......++++....................................................................................++..+......++zzzzzzzzzzzzzzzzzzzzzzzzzzzzyxwvvvvvvwwxwxxxwxxxwwwwwwvvvvvvvvvvwwxwwxzzyyxwussssrrrrrrrrrssrrrrrrqqqqqqqqq
(PID.TID 0007.0001) //    641 +++++++++++++++++++++++........+++.++.........+++++...............................+++++++..+++++++zyxwvuutttttuuuuuvvvwyyyyzzzzzzzzzzzzzz++++++.....++zz+..............................................................................................++++++............++zzzzz++zzzzzzzzzzzyxwvvvvvwwwwxxwwxxwwwwwvvvvuuvuuuvvuuuuuvxyyyxwwvtsssrrrqrqqqqsrrsssrrqqqqqqqpp
(PID.TID 0007.0001) //    640 +++++++++++zz+++zzz++++++++++++++++++++++++++++++++++...........................+++.++++...+++++++zzyywuuuuuuuuuuuuuvvvwxxyyyzzzzzzzzzzz+++++++.+.....++zzzz++.++............................................................................................................+++zzzzzzzzzzzzzzywvvvvwwwwxxxwwwwwwwvvvvvuuuvuuuvvutttuuwxyyxwvusssrrrqqqqqpppqqqppqqrrqqqqqqp
(PID.TID 0007.0001) //    639 ++++++++++++zzzzzz++...........+++++++++++++++++++++++.++.........................+++++++++++++++zzzzywvvuuuuuuuuuuuuvvvvvwwxxyzzzzzzzzzzzzz+++..++++....++zz+++.........................................................................................................+.++++zzzzzzzzzzzzzyyxxwvvvwwwxxxxxwwwwwvvvvvvuuuuuuuuuuttttuuwxxwvtsssrrrqqqppqqppppqqqppqqqqqqqqq
(PID.TID 0007.0001) //    638 ++++++++++++++zz+++++............++++++++++++++++++++++++++..........................++......+++++++zyxxwvuuuuuuuuuuuuvvvvvvwwxyzzzzzzzzzzzzzzz+++...+++zzzzzz+........................................................................................................++++zzzzzzzzzyyyzzzyxwwvvvvwwwxxxxwxwwwvwvvvvvuuuuuuuuuuuuttttttuwxxvtsssrrqqqqpppprsqppopqqqqqqqqqqq
(PID.TID 0007.0001) //    637 ++++..++++++++z+++++++..............++++++++++++++++++++++++.........................++++++++++++++zyyyyyxvvuuuuuuuuuuvvvvvvwwyzzzzzzzzzz++z+zz++++zzzyzzzzzz+++++.................................................................................................+++++zzzzzzzzzzzyxxxxwwwvvvvvwwxxxwxywwxwvvwvvvvvuuuuuuuuuuuutttuuvvwxxxvtsssrqqqqppppoopprqpopqrsrqqqqqq
(PID.TID 0007.0001) //    636 +++......+++++++++++++............++++++++++++++++++++++..++++.......................+.++++++zzzzyyyyzzzzxwvuuuuuuuuuuuvvvvwxyzzzzzzzzzzzz++zzzz++zyyzzzzz+zz+..+.................................................................................................+++zzzzzzzzzyyyxxwwvvvvwwwwwwwvvvvvvvvvwwvvwwvvvvuuuuuuuuuuutttttuvvxxxwvutssrrqqppppppooooppppopqttsqrrss
(PID.TID 0007.0001) //    635 ++........+++++++++.................+++++++++++++++++++++++++.....+......................+++zzzzzyyzz+zzxwwvvuuuuuuuuuvvvvvxyzzzzzzzzzzzzzzzzzzzzyyzz++++++++++........................................................................++...................++++++zzzzzyyyyyxwwwvvvwwwwwwwwwwxxxwwxxwwxwvwwvwwvvvwvvuuuuuuuuutttttuuvwvuuuuttttsrqqppppppooooooooooppqrqqqrs
(PID.TID 0007.0001) //    634 ++......+.+++++++++............++++++++++++++++++++++++++++++++++++.+....................++++++++zz+++zzyxwwvvvvuuuuuuvvvvwxyzzzzzzzzzzzzzyyyzzzzzz+++++...+++.........................................................................+++.......++..+++++++zzzzzzzzzyxwwwwvvvvwwwxxxxxxxwwwxxxwxyxwwwxwwwwwwwwwwvvvvuuuuuuuuttttuuvvuuvwvuuuutsrqqpppppoooooooopqopqppqrrrr
(PID.TID 0007.0001) //    633 ........+++++++++++.............+++++++++++++++++++++++......+++++++.......................++++++++++++++zxxxwwvvvvvvvvvvvwxyzzzzzzzzzzzzzz+++++zzz++++.+++++............................................................................++++..++++zzzzzzzzzzzzzzzzyyxwvvvvvwwwwxxxxxxxxxxxxwwxxyyxwwwwwwwwwwwwwwwvvvuuuuuuuuuuuuuuuvvwwwvvuuutsrqqppppooooooooopqpoopqpqrrr
(PID.TID 0007.0001) //    632 ........++++++.++................+++++++++++++++++++++.......+++....+++........................+++++++++++zzyyyxwwvvvvvvvvvwxyzzzzzzzzzz+++++++++++++......++...+......................................................................+++zzzzzzzzzzzzzzzzzzzzzzzzzyxwvvvwwwwxxxxyyyxxxxxxxxxxxyyxxwwwwwxxxxxwwwwwvvvuuuuuuuuuuuuuuvxvvwwvuuutsrrqqpppoooooooooopqqoopqqpppq
(PID.TID 0007.0001) //    631 .........+++++++...................++++++++++++++++++........+++++++++++.........................+..++...++zz++zzyxxwwvvvvvwwwxyzzzzzzzz+++++++++++.++..............................................................................+++++zzzzzzzzzzzzzzzzzzzzzzzzzyywwvwwwxxxyyyyyyyyyyyyzyyyyyzyyxxxxxxxxxxxxxxwwvvvvuuuuuvvuuuvvvvvuvvvvuuttsrqqppppooopqoooopqqpooooppppq
(PID.TID 0007.0001) //    630 ...........++++.....................+++++++++++++++++......+++++++++++++..............................++.+++++++zzzzyxxwwwwwwwwwxxyzzzzzz++++++++++...++............................................................................++zzzzzzzzzzzzzzzzzzzzzzzzzzyyxxwwwwxxyyyzzzzzzzzzzzzzzzzzzzyyyxxyxyyyyyyyyxxwwvvvvvvvvvvvvvvvvvvvvvvvvuttsrrqpppppppppoppppooppoooooopp
(PID.TID 0007.0001) //    629 ...........+.......................+++++++++++++++++++++++++++++++++++++..............................+++..+++++++++zzyyxxxwwwwwwxxxyyzzz+++++++++++..............................................................................+++zzzzzzzzzyyzzzzzzzzzzzzzzzyyyxxwwxxyyzzzzzzzzzzzzzzzzzzzyzzzzzzzzzzyzzzzzzzyyxwvvvvvvvvvvvvvvvwvvvvvvuuttsrqqpppppppooooppopppooooooooo
(PID.TID 0007.0001) //    628 ....................+++++++......+++++++++++++++++++++++++++++++++++++.....................................+++++..+++zzyyyxxxxxxxxxxyyyzzz++++++++z+++.....++++++................................................................+++zzzzzzzzzzyyzzzzzzzzzzzzzzyyyyxxxxyzzzzzzzzzz++++zzzzzzzzzzzzzzzzzzzzzzzz+zzzzzzyxwvvvvvvvvvvvvvvvvvvuuuttssrqppppqpooooppoopoooopppppop
(PID.TID 0007.0001) //    627 ........................+++....+++++++++++++++++++++++++++++++++++++.......................++....................+++zzzzyyyxxxxyyyyyyyyzzzzz++++zzz++....++....................................................................+++zzzzzzzzyyyyyyzzzzzzzzzzzzzyyyyyyyyzzzzzz+++++++++zzzzz+zzzzzzzzzzzzz++++zz+zzzzzzzzyxwwwvvvvvvvvvvvvvvuuuttsrrqqpppooppppoooppooopppppppp
(PID.TID 0007.0001) //    626 ..............+++++++..++.++++++++++++++++++++++++++++++++++++++++........................++++++...............++.+++zzzzyyyyyyyyyyyyyyyzzzzzzzz+z++..++.........................................................++++.....++++++zzzzzzzzzzzyyyyyzzzzzzzzzzzzyyyyyyyzzz++++++++..++++zzzz++zzzzzzz+zz+zz+.++++++++zzzzzzzxxwwwwwwwwwwwwwwvvvuutsrqqqppppqpppoooqqpppppppppqqq
(PID.TID 0007.0001) //    625 .................+++++++++++++++++++++++++++++++++++++++++++++++.......................++..+++zz++++............++++zzzzzyyyyyyyyyyyyyyyzzzzzz++++++++...........................................................+++......++++zzzzzzzzzzzzzzzyyyzzzzzzzzzzyyyyyyzzzz+++++++++++++.++++z++++++++++++z++++...+++++z++++++zzzzxxwwwwwwwxxxwwvvuttsrqqppqqqpppoooopppppppppqqqqq
(PID.TID 0007.0001) //    624 +++++...........+++++++++++++++zzzzzzzzz++++++++++++++++++++++++++......................+.++++zzzz+++......+...++++zzzzzzzyyyyyyyyyyyyyyyzzz++++++++++++.......................................................++++...+++++zzzzzzzzzzzzzzzzzzzyyyzzzzzzyyyyyyyzzzzzz++++++++...++...+z+++.+++...++............++++zzzzzzzzzzxxwwwxxxxxxxwvvvuutsrqpqqqppooopqqppppppppqqqqqq
(PID.TID 0007.0001) //    623 ...+++++......++++...+++z++++++zzzzzzzzz+++++++++++++++++++++++++++........................++++zyxzz+.+...++++++++zzzzzzzzyyyyyzzyyyyyyyyyyyz++++++z++++.++...............................................++..++++++++++zzzzzzzzzzzzzzzzzzzzzzzyyzzzyyxxxxxyyzzzzz++++++++.........++++++........+..............+++++zzzzzzzyxxxxxxxxxxxxwwvvutsrrrrqppoooqqqppppppppqqqqqqr
(PID.TID 0007.0001) //    622 .....+++++..++++++...++++++zzzzzzzzzzzzz++++++++++++.++++++++++++...........................+++zzyxxz++++..+++zzzzzzzzzzzzzzzzzyyyyyyyyyyyyyyz++++++++++...................................................+++++zzzzz++zzzzzzzzzzzzzzyyxxxxxxxyxyyxxwwwwxxxyzzzz+++++++++++++++++...++............................++++zzzzzzyyxyxxxxxxxxwwvvuutsssrrrqppqqqqppppppqqqqqqqqqq
(PID.TID 0007.0001) //    621 .............+++++........++++zzzzzzzzzzzz+++++++++++.....+++................................++++zzyxyz++++.+++zzzzzzzzzzzzzzzyyyyyyyyyyyyxxyyzz+++++zz++....++......................................+++.+++zzzzyyyzzzzzzzzzzzzzzzyyxwwvvvvvvvvvvvvvvvvwxxyyzzzz+++++++++zz++++++++..+.............................+++zzzzzzyyyyyyyyxxxwwvvvuuutsrrppppqppppppppqqqqqqqqqqrr
(PID.TID 0007.0001) //    620 ............++++++...........+++zzzzzzzzzzzzz+++++.........++.++..............................+++++zzyyyzz+++zzzzzzzzzzzzzzzzzyyyyyyyyyyyxxxxyzz+++++zz+++++.....+...................................+++zzzzzzyyyyyzzzzzzzzzzyxyyxxwvvuutttttttttttuuvwwwxxyzzzzzzzzzzzzzz++.+...................................++++++zzzzzzyyyyywwvuttsssstuuspoopqqqpppppppqqqqqqqqrrrrrr
(PID.TID 0007.0001) //    619 ...........++++++................++zzzzzzzzzzzzz+.........+...++++++++............................++++zzzzzzzzzzzzzzzzzzzzzzzzyyyyxxxxyyyxxxxzzzz+++zzzz++.+++.........................................++zzzzzyyyyyyyyyyyyyzzywwwwvvvuutttsssssssttuvvvwwwxyyzzzzzzzzzzzz++++++++..+...........................+++++++zzzzzzzzyyyyxwvvuttsssttsrqqqqqqppppppqqqqqqqqrrrrrrrr
(PID.TID 0007.0001) //    618 ..........+++++++.................++zzzzzzzzzzzzz+++....+++++++++++++...............................++++zzzzzzzzzzzzzzzzzzzzzyyyxxxxxxyyyxxxxxyzzzz+zzzz++++++...++.................................+.+++zzzzzzzyyyxyzzzzzzzywvvuuuuutttsssssssssttuuvvvwwxxyyzzzzzzzzzzzzz+++++++..........................+.+++++zzzzzzzzzzzzzyyyyxxwwuuuuuttsrqppqqppppqqqqqqqqrrrrrrrsss
(PID.TID 0007.0001) //    617 ........+++++++++..........++.....++++++zzzzzzzzz+++z++++++++++++++++++.............................++++++zzzz++zzzzzzzzzzzzyyyxxxxxxxxyyxxxwwxxxxyzzz++++++++++++..................................++++zzzzzzzzzzzzzzzzzxwwvuuutttttsssssrrrrssstttuvvvvwwxxxyzzzzzzzzzzzzzz++++++......................++++++++z+zzzzyyyzzzzzzyyyyyxxwwvvvutsrqppppppppqqqqqqqrrrrrrssssss
(PID.TID 0007.0001) //    616 .++++++++++++++............+++++.......++zzzzzzzzz++zzzzzzzzzzzzzz+++++++............................+++++zzzzzzzzzzzzzzyyyyyyxxxwwwwwxxxxxwwwwwwwwxyz++z+++.+.........................................zzzzzzzzzzzzzzzzyxvuttttttssssssrrrrrrrsstttuuuvvvwwwwxxyzzzzzzzzzzzzzz+.++++++.++............+++++zzzzz++zzyyyyyyzzzzzzzyyyyyyxxxwwvuutsrrrrrqqqqrrqqqqrrrrrsssssstt
(PID.TID 0007.0001) //    615 +++++++++++++.++++++....+++++++++++...++++zzzzzzzzzz+++zzzzzzzzzzzzzz++++++++.........+++.++.........+.+++zzzzzzzzzzzzzyyyyyxxxxwwvvvvwwwwwvwwwwwwwwvxzzzzz+++.......................................+++zyyzzzzzzzzzywvvuutttssssssrrrrrrrrrrssstttuuuuvvvvvwwxxyyzzzzzzzzzzzzzzz++++++++........++++zz+zzzzzzzyxxwwxyyyyzzzzzzyyyyyyyyyyxxxwwvvuuttssssrrrrrqrrrrsssttttttt
(PID.TID 0007.0001) //    614 ++++++++++++++++++++...++++++++++++++++++zzzzzz++.++++++zzzzzzzzzzzzzzzzz++............++++++.++.....+++++zzzzzzzzzzzzzyyxxxxxxwwvvvuuuvvwwvwwwwwwwwvvxz++zz++.++.................................+++++zzzzyyxwwwwwvvuttttsssssssrrrrrrrrrrrrssttttuuuuvvvvvwwwwxxyyzzzzzzzzzzzzzzz+++zz++zzz+++++++zzzzzzyxwwwvvvvwxyyyyyzzzzzzzzzyyyyyyyxxxwwvvvuttsssssrrssssssttttuuuuuu
(PID.TID 0007.0001) //    613 +++++++++++++++++++++++++++++++++zzzzzzzzzzzzzzz+++++zzzzzzzzzzzzzzzzzzzzzz++++..........++zz+++++....++zzzzzzzzzzzzzzyyyxxxxxxwvvuuutttttttuvvvvwwwvtuwz++zzz++.................................++.++zzzywwvuuuuuuuuttsssssssrrrrrrrrrrrrrrsssstttttuuuuvvvwwwwwwwxyyzzzzzyyxyyyyyyyyzzyyxxxxxxxxyyxwwwwwvvvvvvvvwwxyyyyyyyzzzzzzzzyyyyyyyxxxwvvuuutttsssstttttttuuuuuvvvvv
(PID.TID 0007.0001) //    612 +++++++++++++++++++++++++++++++..++zzzzzzzzzzzzzzzzzzzzzzzzzz+++zzzzzzzzzzzzz+++............zzz+++++.++zz++zzzzzzzzzyyyyxxwwwwwwvuuttssssssssttttuuuutstvyzzzzz++..............................++++++zzzyvuvuutttttttttsssssrrrrrrrrrrrrrrrrssssttttuuuuuvvvvvvwwwwwyyyyyyxwwwxxxxxxwxxxxwvvvvwwwwwwvvvuuuuuuuuuvvwwxxyyyyyyyyyyyyyyyyyyyyyyyyyyxxxxwwvvvvvwwwwwvuuuuvvvvwww
(PID.TID 0007.0001) //    611 ++++++++++++++++++++++++++++....++++zzzzzzzzzzzzzz+zzzzzzzzzzz++++++zzzzzzzzzz+.+++++.........+zzzz++++++++zzzzzzzzyyyxxwwwwwwvuuttsssssssssssssssssssssstwz+zzz+..............................++++zzzzyvvuuutttttttttssssrrrrrrrrrrrrrrrrrsssssttttuuuuvvvvvvvvvwxyyyyxwwwwwwwwwwwwwwwwvvvuvvvuwwvvuuuuuuuuttuuvvwwwxxxxxyyyyyyyyyyyyyzzzzzzzzzzzzzyyyyyxxxyyxxxwvvvvvwwwwx
(PID.TID 0007.0001) //    610 +++++++++++++++++++++++++++...+++++zzzzzz+++++++++......++++++++++.+++zzzzzzzzzzzzzz+++........+zzzzz++++++zzzzzzzyyyyxwwwvvvvuttssssssssssssssssssrrrrrrrsuyyzzz++...........................++++zzyyzzxvuuuuttsssssssssrrrrrrrrrrqqrrrrrssssssttuuuuuuvvvvvvvwxxyyyxwwwwwwwwwvvvvvwwvvvvuuvvuvvvvuutttttttttuuvvvwwwxxxxxxxxxyyyyyyyyzzz+++++++++++zzzzyyyyyxwvvvuvvwwwxxx
(PID.TID 0007.0001) //    609 +++++++++zzzzzzzzzzz+++++++++++++zzzzzz++...+++++.........+...+.......+++zzzzzzzzzzzzzz++++++....++zzz+zzzzzzzzzzyyyyyxwwvvvuttsssssssssssssrrrrrrrrrrrrrrrstuxzzz++............................++zzyzzxwvvuuuttssssssssrrrrrrrrrrqqrrrrssssssstttutuuuvvvvvvvwxxyyxwwwwvvvvvvvvvvvvvvvuuuuuvuuuuuuttttttttttttuuvvvwwwwxxwwxxxxxxyyyyzzz+++++++++++zzzzzzzyxwvvuvvvvwxyyyyy
(PID.TID 0007.0001) //    608 +++++zzzzzzzzzzzzzzzzz++++++++zzzzzzzz+++..+++++++....................++++++zzzzzzzzzzzzzzzzz+++++zzz++zzzzzyyyyyyyyyyyxwvuutttssssssrrrrrrrrrrrrrrrrrrrrrrrrsuyzzz+++.........................+++zzzzxvvvvuutttssssssrrrrrrrrrrqqqrrrrrssssssttttuuuuvvvvvvwxxxxxwwvvvvvvvvvuuuuvvvvuuuuuuuuutttttttttttttttttuuuvvwwwwwwwwwwwwxxxxyyyzz+z+++++++zzzzzzzyyxwvvvvvvwxyyzzzzz
(PID.TID 0007.0001) //    607 ++++zzzzzzzzzzzzzzzzzzzzzzzzzzzzzzzzzz++++++++++++++.....................++++++zzzzzzzzzzzzzzzzzzzzz+.++zzzyyyyyyyyyyyyxwvuttssssssrrrrrrrrrrrrrrrrqqqqqqqrrrrtyzzz++++.+....................+.+++zzzywuuuttttsssssrrrrrrrrrrrqqqqrrrrrssssssttttttuuuvvvvvwxxxxwwwvvvvuuvvuuuuuuuuuutttttttttttttttttsssssttttuuuuvvvvvvvwwwwwwwwwxxxxyyzzz+++++zzzzzzzyxwwwvvvvvwxyzzzzzzz
(PID.TID 0007.0001) //    606 ++++zzzzzzzzzzzzzzzzzzzzzzzzzzzzzzzzz++++++++++++++.......................++++zz+zzzzzzzzzzzzzzzzzzzz++zzzyyyyyyyyyyyyyxvutttssssrrrrrrrrrrrrrrrrqqqqqqqqqqqqqrsvzz+z+++.....................++++zzzywvvuttssssssrrrrrrrrrrqqqqqqqrrrrrssssssttttuuuuvvvvvwxxxwwvvvvvuuuuuuuuuuuuuuuuttttttsssssssssssssssstttttuuuuvvvvvvwwwwwwwwwxyyzzyyyyz+++zzzzzzyyxwwwwwwwwxyyzzzzzzzz
(PID.TID 0007.0001) //    605 ++++zzzzzzzzzzzzzzzzzzzzzzzzzzzzzzzz+++++++++++++++.........................+++z++z+zzzzzzyyyyyyyyyyyyzzzzyyyyyyyyyyyyxvutttssssrrrrrrrrrrrrrrqqqqqqqqqqqqqqqqrrrruxzz++++......+............+++zzyyxvuuttssssrrrrrrrrrrrqqqqqqqqqrrrrssssssstttuuuvvvwvwxxxxwvvvvvuuuuuuuuuuuuuutttttttttssssssssssssssssssttttuuuuvvvvvvwwwxxxxwwxyzz++zyxyzz+zzzzzyxxxwwwwxxyyyzzzz++++zz
(PID.TID 0007.0001) //    604 +++zzzzzzzzzzzzzzzzzzzzzzzzzzzzzzz++++++++++++++++...............................+++++zzzzzzyyyyyyyxyyyzzzyyyyyyyyyyyxwvutttsssrrrrrrqqqqqqqqqqqqqqqqqqqqqqqqqqqqqqsyzzz+++.++++++.++......++.++zzzxvuuttssssrrrrrrrrrqqqqqqqqqqqqqrrrsssssssttuuuuvwwvwxxwwvvvvvvuuttuuuuuuuuuttttttsssssssssssssssssssssssttuuuuuvvvwwwxxwxyzzzyxyzz++zzyxxyzzzzzzyxxxwxxxyyyzzzzz++++++++
(PID.TID 0007.0001) //    603 +++zzzzzzzzzzzzzzzzzzzzzzzzzzzzzz++++++++++++++++++...............................++++++z+++zzzzzzzzyzz+zzzzyyyyyyyyyxwvvuuttsssrrrrqqqqqqqqqqqqqqqqqqpppqqqqqqqqqpqruyz++++zzz++++++.......++++zzywuuutssssrrrrrrrqqqqqqqqqqqqqqqqqrrssssssttuuuvvwvvwxxwvvvvvvuuttttttttttttttssssssssssssssssssssssssssstttuuuuvvwwyyzzywwxzzz+zyz++zyxxxxxyzzzyyxxxxxyyyzzzz++++++++++++
(PID.TID 0007.0001) //    602 +++zzzzzzzzzzzzzzzzzzzzzzzzzzzzzz++++++++++++++++++...............................+++++z+.+++++++zzzzz+++zzzzzzzzzzzzxwvutttssssrrrrrqqqqqqqqqqqqqqqppppppppqqqqqqqqqrsvyzzzzzzzzz+++++.++..++zzzzxvuuttssssrrrrqqqqqqqqqqqqqqqqqqqrrssssssttuuuvvvvwwxwwvvvvvvuttttttttttttttssssrrrrrrrrrsssssrrrrrrsssstttuuuuvvwxyzzzzxwwxxyyyxxzzyyyyyxxxxxyyyxxxxyyzzzzz++++++.+++++++
(PID.TID 0007.0001) //    601 +++zzzzzzzzzzzzzzzzzz++++zzzzzzzz+++++++++++++++++++...............................++++z+++++++zzzzzz+..+++zzzzzzzzzzzwvvuttsssrrrrrrqqqqqqqqqqppppppppppppppppqqqqqqqqrrssuyyxyzz+++++++++.+++zzyvuuttsssssrrrrqqqqqqqqqqqqqqqqqrrrssssssttuuuvvvvwxxwwwvvvuuuuttttttttttttttssssrrrrrrrrrrssrrrrrrrsssstttuuuuvvwxxyyyyxxwwwwwxxxwwwxxxxyyyyxxxxxxxyzzzzzzzz++++++++++++++
(PID.TID 0007.0001) //    600 +++zzzzzzzzzzzzzzzzz++++++zzzzzzzz+++++++++++++++++++..............................++++zz+++++++zzzz+...+++++++zzzzzzzyxvuutsssrrrrrqqqqqqqqqppppppppppppppppppppppqqqqqqqqrrstvxz++++++++++++++zxvuttssrrrrrrqqqqqqqqqqqqqqqqqqrrrrssssttuuuuvvvvwxwwvvvvuuuuuttttttttttssttsssssrrrrrrrrrrrrrrrrrssstttttuuuuvvvwwxxxwwwwwwwwwwwwwwwwwxyyyxxxyyyyyzzzz++++++++++++++++++++
(PID.TID 0007.0001) //    599 +++zzzzzzzzzzzzzzzz++++++++zzzzzzzz++++++++++++++++++..............................+++++zzzzzzzzzzz+.....++++++++zzzzzzzxvuutssrrrrrqqqqqqqqqqqpppppppppppppppppppppppppqqqqqrrsvxz+++++z+++zzzywvuttsssrrqqqqqqqqqqqqqrqqrrrqqrrrqrsssttuuuvvvvwwwwwvvvuuuttttttssssssssssssssssrrrrrrrrrrrrrrrrssttuuvvuuuuvvvwwwwwwwwwwwvvvvwwwwvvvwwwxxxxxxyzzzzzz++++++++++++++++++++++
(PID.TID 0007.0001) //    598 ++++zzzzzzzzzzzzzz+++++++++zzzzzzzz++++++++++++++++...............................++++++++zzzzzzzz+++....+++++++++zzzzzzywvutsssrrrrqqqqqqqqqqqqpppppppppppppppppppppppppqqqqrsttuvwwwwwwyyyywvuuutsssrrrqqqqqqqqqqqqqqqqqqqqqrrrrrsssssuuuvvvvwwwwvvvvuuttttttttstsssssssssssssrrrrrrrrrrrrrrrstuuvwxxxxxxxxxxxxxxwwwwvvvvvuuvwxyxwvvvvwwwxxyyz++++++++++++++++++++++++++++
(PID.TID 0007.0001) //    597 +++++++zzzzzzzzzz++++++++++zzzzzzzzz++++++++++++++.................................+++++++++zzzz++++.......++++++++zzzzzzxvutssrrrqqqqqqqqqqppppppppppppoooppppppppppppppqqqqrrsssstttttuuvywvuuttssrrrrqqqqqqqqqqqqqqqqqrrqqqrsrrssssstuuvvvvwwwvvvvuutttttttsttssssssssssssrrrrrrrqqrrrrrrrrtuvvwxyyyxxxwwxxxxxyyxwvvvvvuuutuwxyxvvvvvvvwxzzz+++++++++++++++++++++++++++++
(PID.TID 0007.0001) //    596 +++++++++zzzzzzzz++++++++++zzzzzzzzz+++++++++++++.................................+++++++++++++++++.........+++z+zzzzzzzzzwuttssrrqqqqqqqqqqpppppppppppppoooopppppppppppppqqqrrrrsssssttuuvvuuuttsrrrqqqqqqqqqqqqqqqqqqqrrqqqrrrsrrsstuuvvvvwvvvvvvuuttttttttsstsssssrrssrrrrrrrrrrqqqqrrrrstuvwxyxxxxwwwwwwwwxxxyyxvvvvvuuuuuuuuuuuuuvvwwxz+++++++++++++++++++++++++++++++z
(PID.TID 0007.0001) //    595 +++++++++++zzzz+++++++++++zzzzzzzzz+++++++++++++........................................++++++++.++...........+++zzzzzzzzzxvuutssrrrqqqqqqqqppppppppppppppoooooopppppppppppqqqrrrsssstuuuvuutssssrrqqqqqqqqqqqqqqqqqqqrrqqqqqrrrrrstuuuvvvwvvvvvuvutttttttttttsssssssrrrrrrrrrrqqqqqqqqrrrstvvxxyyyxxwwwwwwwwwxxxxwwvvvvvuuuuuuuuuuuvwxyyzz+++++++++++++++++++++++++++++++zz
(PID.TID 0007.0001) //    594 ++++++++++++++++++++++++++zzzzzzzz++++++++++++++++.......................................+++++.................++zzzzzzzzzywvutssrrrqqqqqqqppppppppppppppooooooooppppppppppqqqqqrsssstuuttsssrrrrrqqqqqqqqqqqqqqqqqqqqqrrqrrrrsrrsstuuvvvvuvwvvuutstttttttttttsssssrsrrrrrrrrqqqqqqqqqrrssuuvwxyyyxxxxwwwwwwxyyyyyxwwvuvvuuuuuuuuuuwyzzzzz++++++.+++++......++++++++++++++zz
(PID.TID 0007.0001) //    593 ++++++++++++++++++++++++++zzzzzzzz+++++++++++++++++++..................................+++++.................+++++zzzzzzzzzwvutssrrrrqqqqqqqpppppppppppppooooooooooppppppppppqqqrrrssttsrrrrqqqqqqqqqppqqqqqqqqqqqqrrrrrrrssssssrstuvvvvvuwvvuuttssttttttssstsssrrrrrrrrrrrqqqqqqqqqqrrttuvvwwxxxxxxxxwwwwwxyyyyzzzzywvuuuuuuutttuuyzzzz++++++..+++++.....++++++++++++++++++
(PID.TID 0007.0001) //    592 ++++++++++++++++++++++++++zzzzzzzz++++++++++++++++++++.........................................................+++++zzzzzzzyvuttssrrrrqqqqqqpppppppppppppoooooooooooppppppppqqqrrrssrsrrqqqpppppppqppqpqqqqqqqqqqqqqqqqqqqrssssssttuvvuuvvvuuutssststtssssssssrsrrrrrrrrrrrqqqqqqqqqrstttvvwwxxxxxxxxwwwwwwxyyyzzzzzzzwvvuuuuttttuvyzzz++++++++++++++...++++++++++++++++++++
(PID.TID 0007.0001) //    591 ++++++++++++++++++++++++++zzzzzz+++++++++++++++++++++++..........................................................++++zzzzzzzywuttssrrrrrqqqqqqpppppppppppoooooooooooopppppppqqqrrrrqqqqppppppppppppppppppqqqqqqqqqqqqrrrqqrssssstuuvvvuvvvutttttssssssssstssssrrrrrrrrrrrrqqqqqqqqrsssttuvwxxxxxxwwwwwwwwwwxxyyzzz++zzyvuuuuuwuttuwyzz+++++++++++++....+++++.+.+++++++++++++
(PID.TID 0007.0001) //    590 ++++++++++++++++++++++++++zzz+++++++++++++++++++++++++++..........................................................++++zzz++zzxvuttsssrrrrrqqqqqppppppppppoooooooooooooopppppqqqppppppppppppppppppppqppppqqqqqqqqqqqqqrsssssssttttuvvutvvutssssssssssssssssssrrrrrrrrrrrrrqqqqqqqqqrrsttuvwxxxxwwwwwwwwwwwwwxxyzzzz++zzxvuuuuvyxtttuwzz++++++++++.++..............+++++++++++
(PID.TID 0007.0001) //    589 ++++++++++++++++++++++++++++++++++++++++++++++++++++++++..........................................................++++zzz+++zzxwvuttsssrrrrqqqqpppppppppppoooooooooooooooppppppppppppqqpppppppqqqpppqqpqqqqqqqqqqqrrrrssssssstuuvtwuuwwvtsssssssssssssrrrrrrrrrrrrrrrrrrqqqqqqqqqrsstttuvwxxxwwwwwwwwwwxwwxxxyzzz+++zxvuuuuttttstttuxzz+++++++++++...............+++++++++++
(PID.TID 0007.0001) //    588 ....++++++++++++++++++++++++++++++++++++++++++++++++++++...........................................................++++zzz+++zzxwvutttssrrrqqqqqpppppppppppoooooooooooooooopppppppppqpppppppppppqqppppppppqqqqqqqqrrssssssssstttvvuuuuusssssssssssssrrrrrqrrrrrrrrrrrqqqqqqqqqqrsstttuuvvwxxwwwwwwwwwxxxxxxyyzzz++zyxvutttttssssttuuvyz++++++++++++.............++++++++++++
(PID.TID 0007.0001) //    587 .......+++++++++++++++++++++++++++++++++++++++++++++++++...........................................................++++zzzzz+zzzyvvuutsssrrrqqqqqpppppppppooooooooooooooooopooooppppppppppqpppqqqpppppqqqqqqqqqqqrrrsssssttstuuutvvutttttssssssrrrrrrrqrrrrrrrrrrrrqqqqqqqqqqrsstttuuuvvvwwwwwwwwwwwxyyyyyyyzzzzzzywuttssssssssttuuvwyz++++++++++++++..........+++++++++++++
(PID.TID 0007.0001) //    586 ..........+++++++++++++++++++++++++++++++++++++++++++++++..........................................................+++++zzyzzzzzzzywutsssrrrqqqqqppppppppooooooooooooooooooooopppppppppppppppppppppppqpqqqrrqqqqqrrrrsssstttuuvvvwutttttttsssrrrrrrrrrrrrrrrrrrrqqqqqqqqqqqrssttuuuvvvvvwwwwvvvwwwwwxyyyyyzzzzzzzxvtssssssrrrssuvvuvwzz+++++++++++++.........+++++++++++++++
(PID.TID 0007.0001) //    585 ...........+++++++++++++++++++++++++++++++++++++++++++++++..........................................................+++++zzzzzzzzzzzxvtssrrrqqqqqqppppppppoooooooooooooooooopppppppppppppppppppppooppppqqqqqqqqrrrrrrssstttuvvwvuvututtttssssrrrrrrrrrrrrrrrrrqqqqpppppqqrsssttvwwvvvvvvvvvvvvvwwwvwxyyzzzzzzzzyxvtsssrrrrrrrrssttuvxzz+++++++++++++.........+++++++++++++++
(PID.TID 0007.0001) //    584 ..............+++++++++++++++++++++++++++++++++++++++++..............................................................+++++zzzyyyyzzzywutssrrrrqqqqqqqqppppppooooooooooppoooopppppppppqqqppppppppppppppppqqqqqqqrqqqrrssstttuuuuuutstttttssssrrrrqrrqrrrrrrrrrrqqqpppppqrsssttuuvwwvvvvvvuvvvvvvwwvvxxyyzzzzzzzywutssrrrrrrrrrsssstuwyz+++++++++++++.++..........++++++++++++
(PID.TID 0007.0001) //    583 ..................++++++++++++++++++++++++++++++++++++................................................................++++++zzyyzzz+zzxutttsssrrrrqqqqqppppppppoooooooooooopppqqqqqppppppppppppppppppppqqqqqrqqqqqrrsssstttuvuuwvuuttttssssrrrrrrrrrqqqrrrrrrqqqqppppqrrsstttttuuvvvvuuuvvwvvvvvwwwxxyyyyyyyxwvttssrrrrrrrrrrsssstvxz++++++++++++++++++...........++++++++++
(PID.TID 0007.0001) //    582 ....................++++++++++++++++++++++++++++++++....................................................................+++++zzyzzzz+zzyyywvvuuttssrrqqqqqpppppppooooooooooopppqqppppppppppppppppppppppqqqqqqqqqqqrrrsssssstttuttstsssssssrrrrrrrrrqqqqqrrrqqqqpppppqqrrrsssssssstsssssuvwwvvvvwwwxxxyyyxwwvuttssrrrrrqqrrrrrrsstvyz+++++++++++++++++++............+++++++++
(PID.TID 0007.0001) //    581 ...........................+..+.++++++++++++++++++.....................................................................+.+.+++++zzzzzzzz+zzzzyyxxwvusrrrrrrrqqqpppoooooooooopppqpppoopppppppppppppppppppqqqqqqqqqqrrssssssttttuuuutssssssrrrrrrrrrqqqqqqrrqqqpppppppqqrrrrrrrrqqrqqrrrrstuvvvvwwwxxxxxwvuttsssssrrrrrqqqqrrrrrstvy++++++++.+++...+++++.............+++++++++
(PID.TID 0007.0001) //    580 ................................+++++++++++++++...........................................................................+...++++++zzzzzzzzzzzzzzyxwvuutssrrqqppppoooooooopoppppppoppppppppppppppppppppqqqqqqqqqqrssssstuuvvuutsssssssrrrrrrrrrrqqqqqqqrrqqqqpppppptrrrrqqqqqqqsqqqqqrrsuvvvvwwwxxxwwussstttssrrrrrqqqqqrrrrstvyz+++++++.........+++++.+..++.......++++++++
(PID.TID 0007.0001) //    579 ................................++++++++++++......................................................................................++++zzyyzzzzzzzzzzyxwutssrrqqpppooooooooooooppppppppppopppppppppppppppqqqqqqqqqqrqrrrsstttutuuuuttsssrrrrrrrqqqqqqqqqqrqqqqqppppprtrrrqqqqqppppppqqqqrsuvwvvwwwwwvvtsstttsssrrrrrqqqqrrrrstvxzz++++++++..........+++++++++........++++++++
(PID.TID 0007.0001) //    578 ...............................+++++++++++++....................................................................................+++++++zzzzzzzzzzzzzzxvutsrrqqqpppooooooonooooopppppppooooopppppppppppppqqqqqqqqqqqrrrrrtuuuuuvussssssrsrrrrqqqqqqqqqqqqqqqqqqppopqtrrrqqqqqooooooppqqqrsvwwwvvvvuuutssssssrrrrrrrqqqqrrrstwyzzz++++++++...........++++++++++..........+++++
(PID.TID 0007.0001) //    577 ................................++++++++++++++..............................................................................++......+++++zzzzzzzzzzzzzxvtsrrqqqpppooooooonooppooppppooooooooopppppppppppppqqqqqqqqqqrrrrsttuututtssssrrrrrrqqqqqqqqqqqqqqqppppppopqrqqppppqpooooooopqrrrsvwwvvutttsssssssrrrrrqqqrsstvvvwxyzzzz+++..............++++++++++++++..........++++
(PID.TID 0007.0001) //    576 .................................+++++++++++++..............................................................................+........+++++zzzzzzzzzzzzywutsrrqqpppooooooonnooooooooooooooooooooopppooopppppqqqqqqqqqrrrrsttuuuvttssrrrrrrrrrqqqqqqqqqqqqqpppoooopooopoopoppoonnnooopqrsssuvuutsssssssssssrrqqqqrtwxyyzzzzzzzzzz+++++............++++++++++++++...........+++
(PID.TID 0007.0001) //    575 ................................++++++++++++++...........................................................................++++.......++.+++++zzzzzzzzzzzywvtsrqqpppoooooonnnnnnooooooooooooooooooopoooopppppppqqqqqqqqrrrstuutututsrrrrrrrrqqqqrqqqqqqqqqppppoppooooooopqoooonnnnnoooqqsstttsssssssssssssrrqqqqsuxzzzzzzzzzzzzz++++..............++++++++++++++...........+++
(PID.TID 0007.0001) //    574 .................................+++++++++++++..........................................................................++...............+++zzzzzzzzzzzzywutsrqqppoooooonnnnnnnnnnnnooooooooooooooooooooppppppqqqqqqqqqqrrtttuutssssrrrqrrqqqqqqqqqqqqqpppoppooooooooooooooonnnnnnoopqqrstssssssssrrrrrrqqqqqsuxzzzzzzzzzzzzz+++++++............+++++++++++++++............+
(PID.TID 0007.0001) //    573 ................................++...+++++++++............................................................................................+++zzzzzzyyyyzzywusrqqpppoooooonnnnnnnnnnnnnnnnooooooooooooooooooooopppppqqqqqqruutrusrrrrrrrrrrqqqqqqqqqppppppooooooooooooooooppoonnnnnnooqrrrssssssrqppppppppppqruxyzzzzzzzzzzzz+++++++++............++++++++..................+
(PID.TID 0007.0001) //    572 .................................++++.++++++++............................................................................................+++zzzzzzyzzzzzzyvtsrrqqppooooonnnnnnnnnnnnnnnnnnoooooooooooooooonooonooppooooqqrssrrrttsrrrrsrqppqppppppppppppoooooooooooppoooqononnnnnnnnopqrrssrrqpoooooooopppqrvxyzzzzzzzzzzzz++++++++.............+++++++++................++
(PID.TID 0007.0001) //    571 ..................................+++++++++++++..........................................................................................++zzzzzzzzzzzzzzzzywutsrqqppooooonnnnnmnnnnnnnnnnnnnnnnooonoooooopooonooooopqqpqqqqqqppoooonnoooqoopppppppoooooooooooooooooppooooooonnnnnnnnoopqrrrqponnnnnoooopppqtwyyzzzzzzyyzzzz+++++++++++.........++++++++++..................
(PID.TID 0007.0001) //    570 ...................................+++++++++++++........................................................................................++++zzzzzzzzzzzzzzzzywutsrqqppooooonnnnnmnnnnnnnnnnnnnnnnnnopqqpqqqpoooooooopppooooooppppppoopqqssqstqqqppppopoooooooooooooooopppooonnnmmmmnnnnopqpponmmmmmmnnnooppquwyzzzzzzyyyyyzzz+++++..............+++++++++...................
(PID.TID 0007.0001) //    569 ...................................+++++++++++++..........................................................................................+++zzzzzzzzzzzzzzzzyxvtsrqpppooooonnnnmmmmmmnnnmmnnnnnnnnoqqqqrqqpoppooooppppoooppppoppppooqppppooopppqprpqppqqpqooooopoopoopppooopooopnommnnooooonmlllllmmmnnoppquvyzzzzyyyxxxyyzz+++++.........+++++++++++++....................
(PID.TID 0007.0001) //    568 .....................................++++++++++..........................................................................................++++zzzzzzzzzzzzzzzzzzxutrrqqppoooonnnnnnmmmmmmmmmmmnnnnnnnoopqrrqqppqoooooppooooppoooppoooopppqqqrsttttrrsrpqpoooooooooooooooooopoqqqrrqrqnmmnoonnmlllllllllmmnopqsuyzzzzyyxxwxxyzz++++.+.....++++++++++++++......................
(PID.TID 0007.0001) //    567 .......................................++++++++........................................................................................+++++++zzzzzzzzzzzzzzzzzzxvtsrqqppooooooonnnnmmmmmmmmmmmnnnnnnnnnorqqoooooooooooonoooooooopopopoppqqqrrrutrssssrqqqppopooonooooooooooopqqqqrrrnmnnoonmllllllllllllmnoqvyyzzyyxwwvwwxyzz+++++...+++++++++++++++++++++...++............
(PID.TID 0007.0001) //    566 .......................................+++++.++..................................................................................+++++++++++++zzzzzzzzzzzzzzzzzzzxvtsrqqpppooooqonnnmmmmmmmmmmmnnnnnnnnnnnppooooonnnooooooooopponooooppqpopqrrrrsqrsrqqqqoppppoopoqooopoooopooppppqrrrnmnoonmlllllllllllllmnpuxyyyyxwvvuvvwyzz+++++++++++++++++++++++++++++++++.............
[...]
(PID.TID 0007.0001)  cg2d: iter=  4869 ; resid.=  4.81720969080685E+07
(PID.TID 0007.0001)  cg2d: iter=  4870 ; resid.=  4.84084220369517E+07
(PID.TID 0007.0001)  cg2d: iter=  4871 ; resid.=  4.86166402613998E+07
(PID.TID 0007.0001)  cg2d: iter=  4872 ; resid.=  4.85409795263880E+07
(PID.TID 0007.0001)  cg2d: iter=  4873 ; resid.=  4.82891346915939E+07
(PID.TID 0007.0001)  cg2d: iter=  4874 ; resid.=  4.82090555772366E+07
(PID.TID 0007.0001)  cg2d: iter=  4875 ; resid.=  4.83841236729913E+07
(PID.TID 0007.0001)  cg2d: iter=  4876 ; resid.=  4.84772802559412E+07
(PID.TID 0007.0001)  cg2d: iter=  4877 ; resid.=  4.82942650259467E+07
(PID.TID 0007.0001)  cg2d: iter=  4878 ; resid.=  4.80907159698871E+07
(PID.TID 0007.0001)  cg2d: iter=  4879 ; resid.=  4.81352025763066E+07
(PID.TID 0007.0001)  cg2d: iter=  4880 ; resid.=  4.83103120604566E+07
(PID.TID 0007.0001)  cg2d: iter=  4881 ; resid.=  4.82707681388424E+07
(PID.TID 0007.0001)  cg2d: iter=  4882 ; resid.=  4.81705889291551E+07
(PID.TID 0007.0001)  cg2d: iter=  4883 ; resid.=  4.83341664023739E+07
(PID.TID 0007.0001)  cg2d: iter=  4884 ; resid.=  4.85808584361636E+07
(PID.TID 0007.0001)  cg2d: iter=  4885 ; resid.=  4.85890443751424E+07
(PID.TID 0007.0001)  cg2d: iter=  4886 ; resid.=  4.83404139414303E+07
(PID.TID 0007.0001)  cg2d: iter=  4887 ; resid.=  4.81149307246450E+07
(PID.TID 0007.0001)  cg2d: iter=  4888 ; resid.=  4.81610804664184E+07
(PID.TID 0007.0001)  cg2d: iter=  4889 ; resid.=  4.84284509946619E+07
(PID.TID 0007.0001)  cg2d: iter=  4890 ; resid.=  4.86449824077331E+07
(PID.TID 0007.0001)  cg2d: iter=  4891 ; resid.=  4.85836858569646E+07
(PID.TID 0007.0001)  cg2d: iter=  4892 ; resid.=  4.83005359706714E+07
(PID.TID 0007.0001)  cg2d: iter=  4893 ; resid.=  4.80957781414984E+07
(PID.TID 0007.0001)  cg2d: iter=  4894 ; resid.=  4.81854882241374E+07
(PID.TID 0007.0001)  cg2d: iter=  4895 ; resid.=  4.84237304073257E+07
(PID.TID 0007.0001)  cg2d: iter=  4896 ; resid.=  4.84327944310521E+07
(PID.TID 0007.0001)  cg2d: iter=  4897 ; resid.=  4.83564059907656E+07
(PID.TID 0007.0001)  cg2d: iter=  4898 ; resid.=  4.85412726674014E+07
(PID.TID 0007.0001)  cg2d: iter=  4899 ; resid.=  4.86371125110420E+07
(PID.TID 0007.0001)  cg2d: iter=  4900 ; resid.=  4.84362328534846E+07
(PID.TID 0007.0001)  cg2d: iter=  4901 ; resid.=  4.81987895863829E+07
(PID.TID 0007.0001)  cg2d: iter=  4902 ; resid.=  4.82245989122594E+07
(PID.TID 0007.0001)  cg2d: iter=  4903 ; resid.=  4.84495257882474E+07
(PID.TID 0007.0001)  cg2d: iter=  4904 ; resid.=  4.85346433668108E+07
(PID.TID 0007.0001)  cg2d: iter=  4905 ; resid.=  4.83137248139452E+07
(PID.TID 0007.0001)  cg2d: iter=  4906 ; resid.=  4.79646630570097E+07
(PID.TID 0007.0001)  cg2d: iter=  4907 ; resid.=  4.78049989108935E+07
(PID.TID 0007.0001)  cg2d: iter=  4908 ; resid.=  4.79739447293908E+07
(PID.TID 0007.0001)  cg2d: iter=  4909 ; resid.=  4.82929653423640E+07
(PID.TID 0007.0001)  cg2d: iter=  4910 ; resid.=  4.84277846180135E+07
(PID.TID 0007.0001)  cg2d: iter=  4911 ; resid.=  4.82532661467965E+07
(PID.TID 0007.0001)  cg2d: iter=  4912 ; resid.=  4.80054461332378E+07
(PID.TID 0007.0001)  cg2d: iter=  4913 ; resid.=  4.80071646292047E+07
(PID.TID 0007.0001)  cg2d: iter=  4914 ; resid.=  4.82120296633857E+07
(PID.TID 0007.0001)  cg2d: iter=  4915 ; resid.=  4.82110351027461E+07
(PID.TID 0007.0001)  cg2d: iter=  4916 ; resid.=  4.79306565428990E+07
(PID.TID 0007.0001)  cg2d: iter=  4917 ; resid.=  4.77366004721113E+07
(PID.TID 0007.0001)  cg2d: iter=  4918 ; resid.=  4.78274872271845E+07
(PID.TID 0007.0001)  cg2d: iter=  4919 ; resid.=  4.78779021093316E+07
(PID.TID 0007.0001)  cg2d: iter=  4920 ; resid.=  4.76888240646841E+07
(PID.TID 0007.0001)  cg2d: iter=  4921 ; resid.=  4.76380351490360E+07
(PID.TID 0007.0001)  cg2d: iter=  4922 ; resid.=  4.78802848468393E+07
(PID.TID 0007.0001)  cg2d: iter=  4923 ; resid.=  4.81667733008941E+07
(PID.TID 0007.0001)  cg2d: iter=  4924 ; resid.=  4.82025124241356E+07
(PID.TID 0007.0001)  cg2d: iter=  4925 ; resid.=  4.79899914763473E+07
(PID.TID 0007.0001)  cg2d: iter=  4926 ; resid.=  4.78555318907794E+07
(PID.TID 0007.0001)  cg2d: iter=  4927 ; resid.=  4.80076269119672E+07
(PID.TID 0007.0001)  cg2d: iter=  4928 ; resid.=  4.82511610280650E+07
(PID.TID 0007.0001)  cg2d: iter=  4929 ; resid.=  4.82534498752565E+07
(PID.TID 0007.0001)  cg2d: iter=  4930 ; resid.=  4.81153433020142E+07
(PID.TID 0007.0001)  cg2d: iter=  4931 ; resid.=  4.82122065220311E+07
(PID.TID 0007.0001)  cg2d: iter=  4932 ; resid.=  4.82517647319022E+07
(PID.TID 0007.0001)  cg2d: iter=  4933 ; resid.=  4.80431839857724E+07
(PID.TID 0007.0001)  cg2d: iter=  4934 ; resid.=  4.79224444889975E+07
(PID.TID 0007.0001)  cg2d: iter=  4935 ; resid.=  4.80902912198774E+07
(PID.TID 0007.0001)  cg2d: iter=  4936 ; resid.=  4.83172461754812E+07
(PID.TID 0007.0001)  cg2d: iter=  4937 ; resid.=  4.83081495613312E+07
(PID.TID 0007.0001)  cg2d: iter=  4938 ; resid.=  4.80132027349098E+07
(PID.TID 0007.0001)  cg2d: iter=  4939 ; resid.=  4.76499753928957E+07
(PID.TID 0007.0001)  cg2d: iter=  4940 ; resid.=  4.75327136062937E+07
(PID.TID 0007.0001)  cg2d: iter=  4941 ; resid.=  4.76922125281549E+07
(PID.TID 0007.0001)  cg2d: iter=  4942 ; resid.=  4.77335024195484E+07
(PID.TID 0007.0001)  cg2d: iter=  4943 ; resid.=  4.74378172658541E+07
(PID.TID 0007.0001)  cg2d: iter=  4944 ; resid.=  4.70084435360724E+07
(PID.TID 0007.0001)  cg2d: iter=  4945 ; resid.=  4.67540496476534E+07
(PID.TID 0007.0001)  cg2d: iter=  4946 ; resid.=  4.68742140325615E+07
(PID.TID 0007.0001)  cg2d: iter=  4947 ; resid.=  4.73212759137653E+07
(PID.TID 0007.0001)  cg2d: iter=  4948 ; resid.=  4.77177615270367E+07
(PID.TID 0007.0001)  cg2d: iter=  4949 ; resid.=  4.76340385866533E+07
(PID.TID 0007.0001)  cg2d: iter=  4950 ; resid.=  4.71168587562659E+07
(PID.TID 0007.0001)  cg2d: iter=  4951 ; resid.=  4.65671872419662E+07
(PID.TID 0007.0001)  cg2d: iter=  4952 ; resid.=  4.63240057867556E+07
(PID.TID 0007.0001)  cg2d: iter=  4953 ; resid.=  4.64353883797314E+07
(PID.TID 0007.0001)  cg2d: iter=  4954 ; resid.=  4.65188154892564E+07
(PID.TID 0007.0001)  cg2d: iter=  4955 ; resid.=  4.63765814186894E+07
(PID.TID 0007.0001)  cg2d: iter=  4956 ; resid.=  4.64463513586782E+07
(PID.TID 0007.0001)  cg2d: iter=  4957 ; resid.=  4.68762073575736E+07
(PID.TID 0007.0001)  cg2d: iter=  4958 ; resid.=  4.74680743090425E+07
(PID.TID 0007.0001)  cg2d: iter=  4959 ; resid.=  4.78864046502102E+07
(PID.TID 0007.0001)  cg2d: iter=  4960 ; resid.=  4.78367686022954E+07
(PID.TID 0007.0001)  cg2d: iter=  4961 ; resid.=  4.75392638167479E+07
(PID.TID 0007.0001)  cg2d: iter=  4962 ; resid.=  4.75815786688006E+07
(PID.TID 0007.0001)  cg2d: iter=  4963 ; resid.=  4.76449719146932E+07
(PID.TID 0007.0001)  cg2d: iter=  4964 ; resid.=  4.72855492861912E+07
(PID.TID 0007.0001)  cg2d: iter=  4965 ; resid.=  4.69724470015988E+07
(PID.TID 0007.0001)  cg2d: iter=  4966 ; resid.=  4.70514098002061E+07
(PID.TID 0007.0001)  cg2d: iter=  4967 ; resid.=  4.74674606911705E+07
(PID.TID 0007.0001)  cg2d: iter=  4968 ; resid.=  4.79486004537470E+07
(PID.TID 0007.0001)  cg2d: iter=  4969 ; resid.=  4.81577411166377E+07
(PID.TID 0007.0001)  cg2d: iter=  4970 ; resid.=  4.79894450751586E+07
(PID.TID 0007.0001)  cg2d: iter=  4971 ; resid.=  4.77299490683524E+07
(PID.TID 0007.0001)  cg2d: iter=  4972 ; resid.=  4.77621639020743E+07
(PID.TID 0007.0001)  cg2d: iter=  4973 ; resid.=  4.81525177191756E+07
(PID.TID 0007.0001)  cg2d: iter=  4974 ; resid.=  4.86528647797710E+07
(PID.TID 0007.0001)  cg2d: iter=  4975 ; resid.=  4.88909482200585E+07
(PID.TID 0007.0001)  cg2d: iter=  4976 ; resid.=  4.87259306461432E+07
(PID.TID 0007.0001)  cg2d: iter=  4977 ; resid.=  4.84494172879169E+07
(PID.TID 0007.0001)  cg2d: iter=  4978 ; resid.=  4.84671220932331E+07
(PID.TID 0007.0001)  cg2d: iter=  4979 ; resid.=  4.87409394877030E+07
(PID.TID 0007.0001)  cg2d: iter=  4980 ; resid.=  4.88478014123790E+07
(PID.TID 0007.0001)  cg2d: iter=  4981 ; resid.=  4.86555698432242E+07
(PID.TID 0007.0001)  cg2d: iter=  4982 ; resid.=  4.85136781561868E+07
(PID.TID 0007.0001)  cg2d: iter=  4983 ; resid.=  4.87005882949260E+07
(PID.TID 0007.0001)  cg2d: iter=  4984 ; resid.=  4.91421397260109E+07
(PID.TID 0007.0001)  cg2d: iter=  4985 ; resid.=  4.95221636353557E+07
(PID.TID 0007.0001)  cg2d: iter=  4986 ; resid.=  4.95676372785444E+07
(PID.TID 0007.0001)  cg2d: iter=  4987 ; resid.=  4.94020772766181E+07
(PID.TID 0007.0001)  cg2d: iter=  4988 ; resid.=  4.94334025251257E+07
(PID.TID 0007.0001)  cg2d: iter=  4989 ; resid.=  4.96815071862368E+07
(PID.TID 0007.0001)  cg2d: iter=  4990 ; resid.=  4.97374066601449E+07
(PID.TID 0007.0001)  cg2d: iter=  4991 ; resid.=  4.96447901975952E+07
(PID.TID 0007.0001)  cg2d: iter=  4992 ; resid.=  4.98079611217590E+07
(PID.TID 0007.0001)  cg2d: iter=  4993 ; resid.=  5.01187580056961E+07
(PID.TID 0007.0001)  cg2d: iter=  4994 ; resid.=  5.01744733268020E+07
(PID.TID 0007.0001)  cg2d: iter=  4995 ; resid.=  5.00956700105450E+07
(PID.TID 0007.0001)  cg2d: iter=  4996 ; resid.=  5.02709378710951E+07
(PID.TID 0007.0001)  cg2d: iter=  4997 ; resid.=  5.03887512538579E+07
(PID.TID 0007.0001)  cg2d: iter=  4998 ; resid.=  5.02381498859207E+07
(PID.TID 0007.0001)  cg2d: iter=  4999 ; resid.=  5.01072603718758E+07
(PID.TID 0007.0001)  cg2d: iter=  5000 ; resid.=  5.02713670570950E+07
(PID.TID 0007.0001) // =======================================================
(PID.TID 0007.0001) // Model current state
(PID.TID 0007.0001) // =======================================================
(PID.TID 0007.0001) 
(PID.TID 0007.0001) // =======================================================
(PID.TID 0007.0001) // Begin MONITOR dynamic field statistics
(PID.TID 0007.0001) // =======================================================
(PID.TID 0007.0001) %MON time_tsnumber                =                     0
(PID.TID 0007.0001) %MON time_secondsf                =   0.0000000000000E+00
(PID.TID 0007.0001) %MON dynstat_eta_max              =   0.0000000000000E+00
(PID.TID 0007.0001) %MON dynstat_eta_min              =   0.0000000000000E+00
(PID.TID 0007.0001) %MON dynstat_eta_mean             =   0.0000000000000E+00
(PID.TID 0007.0001) %MON dynstat_eta_sd               =   0.0000000000000E+00
(PID.TID 0007.0001) %MON dynstat_eta_del2             =   0.0000000000000E+00
(PID.TID 0007.0001) %MON dynstat_uvel_max             =   0.0000000000000E+00
(PID.TID 0007.0001) %MON dynstat_uvel_min             =   0.0000000000000E+00
(PID.TID 0007.0001) %MON dynstat_uvel_mean            =   0.0000000000000E+00
(PID.TID 0007.0001) %MON dynstat_uvel_sd              =   0.0000000000000E+00
(PID.TID 0007.0001) %MON dynstat_uvel_del2            =   0.0000000000000E+00
(PID.TID 0007.0001) %MON dynstat_vvel_max             =   0.0000000000000E+00
(PID.TID 0007.0001) %MON dynstat_vvel_min             =   0.0000000000000E+00
(PID.TID 0007.0001) %MON dynstat_vvel_mean            =   0.0000000000000E+00
(PID.TID 0007.0001) %MON dynstat_vvel_sd              =   0.0000000000000E+00
(PID.TID 0007.0001) %MON dynstat_vvel_del2            =   0.0000000000000E+00
(PID.TID 0007.0001) %MON dynstat_wvel_max             =  -0.0000000000000E+00
(PID.TID 0007.0001) %MON dynstat_wvel_min             =  -0.0000000000000E+00
(PID.TID 0007.0001) %MON dynstat_wvel_mean            =   0.0000000000000E+00
(PID.TID 0007.0001) %MON dynstat_wvel_sd              =   0.0000000000000E+00
(PID.TID 0007.0001) %MON dynstat_wvel_del2            =   0.0000000000000E+00
(PID.TID 0007.0001) %MON dynstat_theta_max            =   2.0000000000000E+01
(PID.TID 0007.0001) %MON dynstat_theta_min            =   2.0000000000000E+01
(PID.TID 0007.0001) %MON dynstat_theta_mean           =   2.0000000000000E+01
(PID.TID 0007.0001) %MON dynstat_theta_sd             =   8.1712414612411E-14
(PID.TID 0007.0001) %MON dynstat_theta_del2           =   0.0000000000000E+00
(PID.TID 0007.0001) %MON dynstat_salt_max             =   3.0000000000000E+01
(PID.TID 0007.0001) %MON dynstat_salt_min             =   3.0000000000000E+01
(PID.TID 0007.0001) %MON dynstat_salt_mean            =   3.0000000000000E+01
(PID.TID 0007.0001) %MON dynstat_salt_sd              =   2.0605739337043E-13
(PID.TID 0007.0001) %MON dynstat_salt_del2            =   0.0000000000000E+00
(PID.TID 0007.0001) %MON dynstat_sst_max              =   2.0000000000000E+01
(PID.TID 0007.0001) %MON dynstat_sst_min              =   2.0000000000000E+01
(PID.TID 0007.0001) %MON dynstat_sst_mean             =   1.9999999999998E+01
(PID.TID 0007.0001) %MON dynstat_sst_sd               =   2.4584778657296E-12
(PID.TID 0007.0001) %MON dynstat_sst_del2             =   0.0000000000000E+00
(PID.TID 0007.0001) %MON dynstat_sss_max              =   3.0000000000000E+01
(PID.TID 0007.0001) %MON dynstat_sss_min              =   3.0000000000000E+01
(PID.TID 0007.0001) %MON dynstat_sss_mean             =   2.9999999999996E+01
(PID.TID 0007.0001) %MON dynstat_sss_sd               =   4.4231285301062E-12
(PID.TID 0007.0001) %MON dynstat_sss_del2             =   0.0000000000000E+00
(PID.TID 0007.0001) %MON forcing_qnet_max             =   0.0000000000000E+00
(PID.TID 0007.0001) %MON forcing_qnet_min             =   0.0000000000000E+00
(PID.TID 0007.0001) %MON forcing_qnet_mean            =   0.0000000000000E+00
(PID.TID 0007.0001) %MON forcing_qnet_sd              =   0.0000000000000E+00
(PID.TID 0007.0001) %MON forcing_qnet_del2            =   0.0000000000000E+00
(PID.TID 0007.0001) %MON forcing_qsw_max              =   0.0000000000000E+00
(PID.TID 0007.0001) %MON forcing_qsw_min              =   0.0000000000000E+00
(PID.TID 0007.0001) %MON forcing_qsw_mean             =   0.0000000000000E+00
(PID.TID 0007.0001) %MON forcing_qsw_sd               =   0.0000000000000E+00
(PID.TID 0007.0001) %MON forcing_qsw_del2             =   0.0000000000000E+00
(PID.TID 0007.0001) %MON forcing_empmr_max            =   0.0000000000000E+00
(PID.TID 0007.0001) %MON forcing_empmr_min            =   0.0000000000000E+00
(PID.TID 0007.0001) %MON forcing_empmr_mean           =   0.0000000000000E+00
(PID.TID 0007.0001) %MON forcing_empmr_sd             =   0.0000000000000E+00
(PID.TID 0007.0001) %MON forcing_empmr_del2           =   0.0000000000000E+00
(PID.TID 0007.0001) %MON forcing_fu_max               =   0.0000000000000E+00
(PID.TID 0007.0001) %MON forcing_fu_min               =   0.0000000000000E+00
(PID.TID 0007.0001) %MON forcing_fu_mean              =   0.0000000000000E+00
(PID.TID 0007.0001) %MON forcing_fu_sd                =   0.0000000000000E+00
(PID.TID 0007.0001) %MON forcing_fu_del2              =   0.0000000000000E+00
(PID.TID 0007.0001) %MON forcing_fv_max               =   0.0000000000000E+00
(PID.TID 0007.0001) %MON forcing_fv_min               =   0.0000000000000E+00
(PID.TID 0007.0001) %MON forcing_fv_mean              =   0.0000000000000E+00
(PID.TID 0007.0001) %MON forcing_fv_sd                =   0.0000000000000E+00
(PID.TID 0007.0001) %MON forcing_fv_del2              =   0.0000000000000E+00
(PID.TID 0007.0001) %MON trAdv_CFL_u_max              =   0.0000000000000E+00
(PID.TID 0007.0001) %MON trAdv_CFL_v_max              =   0.0000000000000E+00
(PID.TID 0007.0001) %MON trAdv_CFL_w_max              =   0.0000000000000E+00
(PID.TID 0007.0001) %MON advcfl_uvel_max              =   0.0000000000000E+00
(PID.TID 0007.0001) %MON advcfl_vvel_max              =   0.0000000000000E+00
(PID.TID 0007.0001) %MON advcfl_wvel_max              =   0.0000000000000E+00
(PID.TID 0007.0001) %MON advcfl_W_hf_max              =   0.0000000000000E+00
(PID.TID 0007.0001) %MON pe_b_mean                    =   0.0000000000000E+00
(PID.TID 0007.0001) %MON ke_max                       =   0.0000000000000E+00
(PID.TID 0007.0001) %MON ke_mean                      =   0.0000000000000E+00
(PID.TID 0007.0001) %MON ke_vol                       =   1.3390214028633E+18
(PID.TID 0007.0001) %MON vort_r_min                   =   0.0000000000000E+00
(PID.TID 0007.0001) %MON vort_r_max                   =   0.0000000000000E+00
(PID.TID 0007.0001) %MON vort_a_mean                  =  -1.3013328496589E-05
(PID.TID 0007.0001) %MON vort_a_sd                    =   8.0374144259079E-05
(PID.TID 0007.0001) %MON vort_p_mean                  =  -4.0285224932342E-05
(PID.TID 0007.0001) %MON vort_p_sd                    =   2.8329417776011E-03
(PID.TID 0007.0001) %MON surfExpan_theta_mean         =   0.0000000000000E+00
(PID.TID 0007.0001) %MON surfExpan_salt_mean          =   0.0000000000000E+00
(PID.TID 0007.0001) // =======================================================
(PID.TID 0007.0001) // End MONITOR dynamic field statistics
(PID.TID 0007.0001) // =======================================================
(PID.TID 0007.0001)   Seconds in section "ALL                    [THE_MODEL_MAIN]":
(PID.TID 0007.0001)           User time:   11.929289262741804
(PID.TID 0007.0001)         System time:  0.14456400647759438
(PID.TID 0007.0001)     Wall clock time:   13.971658229827881
(PID.TID 0007.0001)          No. starts:           1
(PID.TID 0007.0001)           No. stops:           1
(PID.TID 0007.0001)   Seconds in section "INITIALISE_FIXED       [THE_MODEL_MAIN]":
(PID.TID 0007.0001)           User time:  0.11966699734330177
(PID.TID 0007.0001)         System time:   2.1009999327361584E-002
(PID.TID 0007.0001)     Wall clock time:  0.25424480438232422
(PID.TID 0007.0001)          No. starts:           1
(PID.TID 0007.0001)           No. stops:           1
(PID.TID 0007.0001)   Seconds in section "THE_MAIN_LOOP          [THE_MODEL_MAIN]":
(PID.TID 0007.0001)           User time:   11.809610441327095
(PID.TID 0007.0001)         System time:  0.12351700663566589
(PID.TID 0007.0001)     Wall clock time:   13.717178106307983
(PID.TID 0007.0001)          No. starts:           1
(PID.TID 0007.0001)           No. stops:           1
(PID.TID 0007.0001)   Seconds in section "INITIALISE_VARIA    [THE_MAIN_LOOP]":
(PID.TID 0007.0001)           User time:   11.809589281678200
(PID.TID 0007.0001)         System time:  0.12350499443709850
(PID.TID 0007.0001)     Wall clock time:   13.717148065567017
(PID.TID 0007.0001)          No. starts:           1
(PID.TID 0007.0001)           No. stops:           1
(PID.TID 0007.0001)   Seconds in section "MAIN LOOP           [THE_MAIN_LOOP]":
(PID.TID 0007.0001)           User time:   5.7220458984375000E-006
(PID.TID 0007.0001)         System time:   1.9967555999755859E-006
(PID.TID 0007.0001)     Wall clock time:   8.1062316894531250E-006
(PID.TID 0007.0001)          No. starts:           1
(PID.TID 0007.0001)           No. stops:           1
(PID.TID 0007.0001) // ======================================================
(PID.TID 0007.0001) // Tile <-> Tile communication statistics
(PID.TID 0007.0001) // ======================================================
(PID.TID 0007.0001) // o Tile number: 000008
(PID.TID 0007.0001) //         No. X exchanges =              0
(PID.TID 0007.0001) //            Max. X spins =              0
(PID.TID 0007.0001) //            Min. X spins =     1000000000
(PID.TID 0007.0001) //          Total. X spins =              0
(PID.TID 0007.0001) //            Avg. X spins =       0.00E+00
(PID.TID 0007.0001) //         No. Y exchanges =              0
(PID.TID 0007.0001) //            Max. Y spins =              0
(PID.TID 0007.0001) //            Min. Y spins =     1000000000
(PID.TID 0007.0001) //          Total. Y spins =              0
(PID.TID 0007.0001) //            Avg. Y spins =       0.00E+00
(PID.TID 0007.0001) // o Thread number: 000001
(PID.TID 0007.0001) //            No. barriers =          30562
(PID.TID 0007.0001) //      Max. barrier spins =              1
(PID.TID 0007.0001) //      Min. barrier spins =              1
(PID.TID 0007.0001) //     Total barrier spins =          30562
(PID.TID 0007.0001) //      Avg. barrier spins =       1.00E+00
PROGRAM MAIN: Execution ended Normally
