(PID.TID 0000.0001) ** WARNINGS ** INI_SALT: found    129600 wet grid-pts with salt=0 identically.
