(PID.TID 0028.0001) 
(PID.TID 0028.0001) // ======================================================
(PID.TID 0028.0001) //                      MITgcm UV
(PID.TID 0028.0001) //                      =========
(PID.TID 0028.0001) // ======================================================
(PID.TID 0028.0001) // execution environment starting up...
(PID.TID 0028.0001) 
(PID.TID 0028.0001) // MITgcmUV version:  checkpoint69m
(PID.TID 0028.0001) // Build user:        hmh85
(PID.TID 0028.0001) // Build host:        onode14
(PID.TID 0028.0001) // Build date:        Fri Jun 12 00:43:41 EEST 2026
(PID.TID 0028.0001) 
(PID.TID 0028.0001) // =======================================================
(PID.TID 0028.0001) // Execution Environment parameter file "eedata"
(PID.TID 0028.0001) // =======================================================
(PID.TID 0028.0001) ># Example "eedata" file
(PID.TID 0028.0001) ># Lines beginning "#" are comments
(PID.TID 0028.0001) ># nTx - No. threads per process in X
(PID.TID 0028.0001) ># nTy - No. threads per process in Y
(PID.TID 0028.0001) > &EEPARMS
(PID.TID 0028.0001) > /
(PID.TID 0028.0001) ># Note: Some systems use & as the
(PID.TID 0028.0001) ># namelist terminator. Other systems
(PID.TID 0028.0001) ># use a / character (as shown here).
(PID.TID 0028.0001) 
(PID.TID 0028.0001) // =======================================================
(PID.TID 0028.0001) // Computational Grid Specification ( see files "SIZE.h" )
(PID.TID 0028.0001) //                                  ( and "eedata"       )
(PID.TID 0028.0001) // =======================================================
(PID.TID 0028.0001)      nPx =   12 ; /* No. processes in X */
(PID.TID 0028.0001)      nPy =    4 ; /* No. processes in Y */
(PID.TID 0028.0001)      nSx =    1 ; /* No. tiles in X per process */
(PID.TID 0028.0001)      nSy =    1 ; /* No. tiles in Y per process */
(PID.TID 0028.0001)      sNx =  120 ; /* Tile size in X */
(PID.TID 0028.0001)      sNy =  180 ; /* Tile size in Y */
(PID.TID 0028.0001)      OLx =    2 ; /* Tile overlap distance in X */
(PID.TID 0028.0001)      OLy =    2 ; /* Tile overlap distance in Y */
(PID.TID 0028.0001)      nTx =    1 ; /* No. threads in X per process */
(PID.TID 0028.0001)      nTy =    1 ; /* No. threads in Y per process */
(PID.TID 0028.0001)       Nr =    1 ; /* No. levels in the vertical   */
(PID.TID 0028.0001)       Nx = 1440 ; /* Total domain size in X ( = nPx*nSx*sNx ) */
(PID.TID 0028.0001)       Ny =  720 ; /* Total domain size in Y ( = nPy*nSy*sNy ) */
(PID.TID 0028.0001)   nTiles =    1 ; /* Total no. tiles per process ( = nSx*nSy ) */
(PID.TID 0028.0001)   nProcs =   48 ; /* Total no. processes ( = nPx*nPy ) */
(PID.TID 0028.0001) nThreads =    1 ; /* Total no. threads per process ( = nTx*nTy ) */
(PID.TID 0028.0001) usingMPI =    T ; /* Flag used to control whether MPI is in use */
(PID.TID 0028.0001)                   /*  note: To execute a program with MPI calls */
(PID.TID 0028.0001)                   /*  it must be launched appropriately e.g     */
(PID.TID 0028.0001)                   /*  "mpirun -np 64 ......"                    */
(PID.TID 0028.0001) useCoupler=   F ; /* Flag used to control communications with   */
(PID.TID 0028.0001)                   /*  other model components, through a coupler */
(PID.TID 0028.0001) useNest2W_parent =    F ;/* Control 2-W Nesting comm */
(PID.TID 0028.0001) useNest2W_child  =    F ;/* Control 2-W Nesting comm */
(PID.TID 0028.0001) debugMode =    F ; /* print debug msg. (sequence of S/R calls)  */
(PID.TID 0028.0001) printMapIncludesZeros=    F ; /* print zeros in Std.Output maps */
(PID.TID 0028.0001) maxLengthPrt1D=   65 /* maxLength of 1D array printed to StdOut */
(PID.TID 0028.0001) 
(PID.TID 0028.0001) ======= Starting MPI parallel Run =========
(PID.TID 0028.0001)  My Processor Name (len:  7 ) = onode14
(PID.TID 0028.0001)  Located at (  7,  0) on processor grid (0: 11,0:  3)
(PID.TID 0028.0001)  Origin at  (   841,     1) on global grid (1:  1440,1:   720)
(PID.TID 0028.0001)  North neighbor = processor 0029
(PID.TID 0028.0001)  South neighbor = processor 0031
(PID.TID 0028.0001)   East neighbor = processor 0032
(PID.TID 0028.0001)   West neighbor = processor 0024
(PID.TID 0028.0001) // ======================================================
(PID.TID 0028.0001) // Mapping of tiles to threads
(PID.TID 0028.0001) // ======================================================
(PID.TID 0028.0001) // -o- Thread   1, tiles (   1:   1,   1:   1)
(PID.TID 0028.0001) 
(PID.TID 0028.0001) // ======================================================
(PID.TID 0028.0001) // Tile <-> Tile connectvity table
(PID.TID 0028.0001) // ======================================================
(PID.TID 0028.0001) // Tile number: 000008 (process no. = 000028)
(PID.TID 0028.0001) //        WEST: Tile = 000007, Process = 000024, Comm = messages
(PID.TID 0028.0001) //                bi = 000001, bj = 000001
(PID.TID 0028.0001) //        EAST: Tile = 000009, Process = 000032, Comm = messages
(PID.TID 0028.0001) //                bi = 000001, bj = 000001
(PID.TID 0028.0001) //       SOUTH: Tile = 000044, Process = 000031, Comm = messages
(PID.TID 0028.0001) //                bi = 000001, bj = 000001
(PID.TID 0028.0001) //       NORTH: Tile = 000020, Process = 000029, Comm = messages
(PID.TID 0028.0001) //                bi = 000001, bj = 000001
(PID.TID 0028.0001) 
(PID.TID 0028.0001)  INI_PARMS: opening model parameter file "data"
(PID.TID 0028.0001)  OPEN_COPY_DATA_FILE: opening file data
(PID.TID 0028.0001) // =======================================================
(PID.TID 0028.0001) // Parameter file "data"
(PID.TID 0028.0001) // =======================================================
(PID.TID 0028.0001) ># ===============================================================
(PID.TID 0028.0001) ># Oceanic Williamson TC1 free-surface cosine-bell advection.
(PID.TID 0028.0001) ># One-layer, global lat-lon ocean with prescribed solid-body velocity.
(PID.TID 0028.0001) ># ===============================================================
(PID.TID 0028.0001) >
(PID.TID 0028.0001) ># Continuous equation parameters
(PID.TID 0028.0001) >&PARM01
(PID.TID 0028.0001) > omega = 7.292E-5,
(PID.TID 0028.0001) > gravity = 9.81,
(PID.TID 0028.0001) > rhoConst = 1000.,
(PID.TID 0028.0001) > buoyancyRelation = 'OCEANIC',
(PID.TID 0028.0001) > eosType = 'LINEAR',
(PID.TID 0028.0001) > tAlpha = 0.,
(PID.TID 0028.0001) > sBeta = 0.,
(PID.TID 0028.0001) >
(PID.TID 0028.0001) ># Dynamics switches
(PID.TID 0028.0001) > rigidLid = .FALSE.,
(PID.TID 0028.0001) > implicitFreeSurface = .TRUE.,
(PID.TID 0028.0001) > exactConserv = .TRUE.,
(PID.TID 0028.0001) > momStepping = .FALSE.,
(PID.TID 0028.0001) > momAdvection = .FALSE.,
(PID.TID 0028.0001) > useCoriolis = .TRUE.,
(PID.TID 0028.0001) > tempStepping = .FALSE.,
(PID.TID 0028.0001) > saltStepping = .FALSE.,
(PID.TID 0028.0001) >
(PID.TID 0028.0001) ># Viscosity / diffusion (set to zero to stay close to inviscid linear regime)
(PID.TID 0028.0001) > viscAh = 0.,
(PID.TID 0028.0001) > viscA4 = 0.,
(PID.TID 0028.0001) > diffKhT = 0.,
(PID.TID 0028.0001) > no_slip_sides = .FALSE.,
(PID.TID 0028.0001) > no_slip_bottom = .FALSE.,
(PID.TID 0028.0001) > hFacMin = 1.E-5,
(PID.TID 0028.0001) > hFacMinDr = 0.5,
(PID.TID 0028.0001) >
(PID.TID 0028.0001) ># I/O precision
(PID.TID 0028.0001) > readBinaryPrec = 32,
(PID.TID 0028.0001) > writeBinaryPrec = 64,
(PID.TID 0028.0001) > useSingleCpuIO = .TRUE.,
(PID.TID 0028.0001) >/
(PID.TID 0028.0001) >
(PID.TID 0028.0001) ># Elliptic solver parameters
(PID.TID 0028.0001) >&PARM02
(PID.TID 0028.0001) > cg2dMaxIters = 5000,
(PID.TID 0028.0001) > cg2dTargetResidual = 1.E-10,
(PID.TID 0028.0001) > cg2dPreCondFreq = 1,
(PID.TID 0028.0001) >/
(PID.TID 0028.0001) >
(PID.TID 0028.0001) ># Time stepping parameters
(PID.TID 0028.0001) >&PARM03
(PID.TID 0028.0001) > nIter0=0,
(PID.TID 0028.0001) > nTimeSteps= 17280 ,
(PID.TID 0028.0001) > abEps=0.1,
(PID.TID 0028.0001) > deltaT=60.,
(PID.TID 0028.0001) > cAdjFreq=0.,
(PID.TID 0028.0001) > pChkptFreq=0.,
(PID.TID 0028.0001) > chkptFreq=0.,
(PID.TID 0028.0001) > dumpFreq=86400.,
(PID.TID 0028.0001) > monitorSelect=1,
(PID.TID 0028.0001) > monitorFreq=86400.,
(PID.TID 0028.0001) >/
(PID.TID 0028.0001) >
(PID.TID 0028.0001) ># Grid parameters
(PID.TID 0028.0001) >&PARM04
(PID.TID 0028.0001) > usingSphericalPolarGrid = .TRUE.,
(PID.TID 0028.0001) > delX = 1440*0.25,
(PID.TID 0028.0001) > delY = 720*0.25,
(PID.TID 0028.0001) > xgOrigin = 0.,
(PID.TID 0028.0001) > ygOrigin = -90.,
(PID.TID 0028.0001) > rSphere = 6371000.,
(PID.TID 0028.0001) > delR = 4000.,
(PID.TID 0028.0001) >/
(PID.TID 0028.0001) >
(PID.TID 0028.0001) ># Input datasets
(PID.TID 0028.0001) >&PARM05
(PID.TID 0028.0001) > bathyFile = 'bathymetry_flat4000.bin',
(PID.TID 0028.0001) > pSurfInitFile = 'eta_init.bin',
(PID.TID 0028.0001) > uVelInitFile   = 'u_init.bin',
(PID.TID 0028.0001) > vVelInitFile   = 'v_init.bin',
(PID.TID 0028.0001) >/
(PID.TID 0028.0001) 
(PID.TID 0028.0001)  INI_PARMS ; starts to read PARM01
(PID.TID 0028.0001)  INI_PARMS ; read PARM01 : OK
(PID.TID 0028.0001)  INI_PARMS ; starts to read PARM02
(PID.TID 0028.0001)  INI_PARMS ; read PARM02 : OK
(PID.TID 0028.0001)  INI_PARMS ; starts to read PARM03
(PID.TID 0028.0001)  INI_PARMS ; read PARM03 : OK
(PID.TID 0028.0001)  INI_PARMS ; starts to read PARM04
(PID.TID 0028.0001)  INI_PARMS ; read PARM04 : OK
(PID.TID 0028.0001)  INI_PARMS ; starts to read PARM05
(PID.TID 0028.0001)  INI_PARMS ; read PARM05 : OK
(PID.TID 0028.0001)  INI_PARMS: finished reading file "data"
(PID.TID 0028.0001)  PACKAGES_BOOT: opening data.pkg
(PID.TID 0028.0001)  OPEN_COPY_DATA_FILE: opening file data.pkg
(PID.TID 0028.0001) // =======================================================
(PID.TID 0028.0001) // Parameter file "data.pkg"
(PID.TID 0028.0001) // =======================================================
(PID.TID 0028.0001) ># Packages
(PID.TID 0028.0001) > &PACKAGES
(PID.TID 0028.0001) > useDiagnostics=.TRUE.,
(PID.TID 0028.0001) > /
(PID.TID 0028.0001) 
(PID.TID 0028.0001)  PACKAGES_BOOT: finished reading data.pkg
(PID.TID 0028.0001)  PACKAGES_BOOT: On/Off package Summary
 --------  pkgs with a standard "usePKG" On/Off switch in "data.pkg":  --------
 pkg/diagnostics          compiled   and   used ( useDiagnostics           = T )
 -------- pkgs without standard "usePKG" On/Off switch in "data.pkg":  --------
 pkg/mom_common           compiled but not used ( momStepping              = F )
 pkg/mom_vecinv           compiled but not used ( +vectorInvariantMomentum = F )
 pkg/mom_fluxform         compiled but not used ( & not vectorInvariantMom = F )
 pkg/monitor              compiled   and   used ( monitorFreq > 0.         = T )
 pkg/debug                compiled but not used ( debugMode                = F )
 pkg/rw                   compiled   and   used
 pkg/mdsio                compiled   and   used
(PID.TID 0028.0001)  PACKAGES_BOOT: End of package Summary
(PID.TID 0028.0001) 
(PID.TID 0028.0001)  DIAGNOSTICS_READPARMS: opening data.diagnostics
(PID.TID 0028.0001)  OPEN_COPY_DATA_FILE: opening file data.diagnostics
(PID.TID 0028.0001) // =======================================================
(PID.TID 0028.0001) // Parameter file "data.diagnostics"
(PID.TID 0028.0001) // =======================================================
(PID.TID 0028.0001) ># Diagnostic Package Choices
(PID.TID 0028.0001) >#--------------------
(PID.TID 0028.0001) >#  dumpAtLast (logical): always write output at the end of simulation (default=F)
(PID.TID 0028.0001) >#  diag_mnc   (logical): write to NetCDF files (default=useMNC)
(PID.TID 0028.0001) >#--for each output-stream:
(PID.TID 0028.0001) >#  fileName(n) : prefix of the output file name (max 80c long) for outp.stream n
(PID.TID 0028.0001) >#  frequency(n):< 0 : write snap-shot output every |frequency| seconds
(PID.TID 0028.0001) >#               > 0 : write time-average output every frequency seconds
(PID.TID 0028.0001) >#  timePhase(n)     : write at time = timePhase + multiple of |frequency|
(PID.TID 0028.0001) >#    averagingFreq  : frequency (in s) for periodic averaging interval
(PID.TID 0028.0001) >#    averagingPhase : phase     (in s) for periodic averaging interval
(PID.TID 0028.0001) >#    repeatCycle    : number of averaging intervals in 1 cycle
(PID.TID 0028.0001) >#  levels(:,n) : list of levels to write to file (Notes: declared as REAL)
(PID.TID 0028.0001) >#                when this entry is missing, select all common levels of this list
(PID.TID 0028.0001) >#  fields(:,n) : list of selected diagnostics fields (8.c) in outp.stream n
(PID.TID 0028.0001) >#                (see "available_diagnostics.log" file for the full list of diags)
(PID.TID 0028.0001) >#  missing_value(n) : missing value for real-type fields in output file "n"
(PID.TID 0028.0001) >#  fileFlags(n)     : specific code (8c string) for output file "n"
(PID.TID 0028.0001) >#--------------------
(PID.TID 0028.0001) > &DIAGNOSTICS_LIST
(PID.TID 0028.0001) ># diag_mnc     = .FALSE.,
(PID.TID 0028.0001) ># useMissingValue=.TRUE.,
(PID.TID 0028.0001) >  xPsi0 = 135.,
(PID.TID 0028.0001) >  yPsi0 =  0.,
(PID.TID 0028.0001) >#--
(PID.TID 0028.0001) >  fields(1:4,3) = 'UVEL    ','VVEL    ',
(PID.TID 0028.0001) >                  'ETAN    ','ETANSQ  ',
(PID.TID 0028.0001) >  fileName(3) = 'dynDiag',
(PID.TID 0028.0001) >  frequency(3) = -86400.,
(PID.TID 0028.0001) >  timePhase(3) = 0.,
(PID.TID 0028.0001) >
(PID.TID 0028.0001) >  fields(1:3,2) = 'WVELMASS','PhiVEL  ','PsiVEL  ',
(PID.TID 0028.0001) >   fileName(2) = 'dyn_Aux',
(PID.TID 0028.0001) ># fileFlags(2) = 'D       ',
(PID.TID 0028.0001) >  frequency(2) = -86400.,
(PID.TID 0028.0001) >  timePhase(2) = 0.,
(PID.TID 0028.0001) > /
(PID.TID 0028.0001) >
(PID.TID 0028.0001) >#--------------------
(PID.TID 0028.0001) ># Parameter for Diagnostics of per level statistics:
(PID.TID 0028.0001) >#--------------------
(PID.TID 0028.0001) >#  diagSt_mnc (logical): write stat-diags to NetCDF files (default=diag_mnc)
(PID.TID 0028.0001) >#  diagSt_regMaskFile : file containing the region-mask to read-in
(PID.TID 0028.0001) >#  nSetRegMskFile   : number of region-mask sets within the region-mask file
(PID.TID 0028.0001) >#  set_regMask(i)   : region-mask set-index that identifies the region "i"
(PID.TID 0028.0001) >#  val_regMask(i)   : region "i" identifier value in the region mask
(PID.TID 0028.0001) >#--for each output-stream:
(PID.TID 0028.0001) >#  stat_fName(n) : prefix of the output file name (max 80c long) for outp.stream n
(PID.TID 0028.0001) >#  stat_freq(n):< 0 : write snap-shot output every |stat_freq| seconds
(PID.TID 0028.0001) >#               > 0 : write time-average output every stat_freq seconds
(PID.TID 0028.0001) >#  stat_phase(n)    : write at time = stat_phase + multiple of |stat_freq|
(PID.TID 0028.0001) >#  stat_region(:,n) : list of "regions" (default: 1 region only=global)
(PID.TID 0028.0001) >#  stat_fields(:,n) : list of selected diagnostics fields (8.c) in outp.stream n
(PID.TID 0028.0001) >#                (see "available_diagnostics.log" file for the full list of diags)
(PID.TID 0028.0001) >#--------------------
(PID.TID 0028.0001) > &DIAG_STATIS_PARMS
(PID.TID 0028.0001) ># diagSt_mnc    = .TRUE.,
(PID.TID 0028.0001) > stat_fields(1:4,1)  = 'ETAN    ','ETANSQ  ','UVELSQ  ',
(PID.TID 0028.0001) >                       'VVELSQ  ',
(PID.TID 0028.0001) >  stat_fName(1) = 'dynStDiag',
(PID.TID 0028.0001) >   stat_freq(1) = -86400.,
(PID.TID 0028.0001) >  stat_phase(1) = 0.,
(PID.TID 0028.0001) > /
(PID.TID 0028.0001) 
(PID.TID 0028.0001) S/R DIAGNOSTICS_READPARMS, read namelist "diagnostics_list": start
(PID.TID 0028.0001) S/R DIAGNOSTICS_READPARMS, read namelist "diagnostics_list": OK
(PID.TID 0028.0001) S/R DIAGNOSTICS_READPARMS, read namelist "DIAG_STATIS_PARMS": start
(PID.TID 0028.0001) S/R DIAGNOSTICS_READPARMS, read namelist "DIAG_STATIS_PARMS": OK
(PID.TID 0028.0001) -----------------------------------------------------
(PID.TID 0028.0001)  DIAGNOSTICS_READPARMS: global parameter summary:
(PID.TID 0028.0001)  diag_dBugLevel = /* level of printed debug messages */
(PID.TID 0028.0001)                       2
(PID.TID 0028.0001)     ;
(PID.TID 0028.0001)  dumpAtLast = /* always write time-ave diags at the end */
(PID.TID 0028.0001)                   F
(PID.TID 0028.0001)     ;
(PID.TID 0028.0001)  diag_mnc =   /* write NetCDF output files */
(PID.TID 0028.0001)                   F
(PID.TID 0028.0001)     ;
(PID.TID 0028.0001)  useMissingValue = /* put MissingValue where mask = 0 */
(PID.TID 0028.0001)                   F
(PID.TID 0028.0001)     ;
(PID.TID 0028.0001)  diagCG_maxIters = /* max number of iters in diag_cg2d */
(PID.TID 0028.0001)                    5000
(PID.TID 0028.0001)     ;
(PID.TID 0028.0001)  diagCG_resTarget = /* residual target for diag_cg2d */
(PID.TID 0028.0001)                 1.000000000000000E-10
(PID.TID 0028.0001)     ;
(PID.TID 0028.0001)  diagCG_pcOffDFac = /* preconditioner off-diagonal factor */
(PID.TID 0028.0001)                 9.611687812379854E-01
(PID.TID 0028.0001)     ;
(PID.TID 0028.0001) -----------------------------------------------------
(PID.TID 0028.0001)  DIAGNOSTICS_READPARMS: active diagnostics summary:
(PID.TID 0028.0001) -----------------------------------------------------
(PID.TID 0028.0001) Creating Output Stream: dyn_Aux
(PID.TID 0028.0001) Output Frequency:     -86400.000000 ; Phase:           0.000000
(PID.TID 0028.0001)  Averaging Freq.:          0.000000 , Phase:           0.000000 , Cycle:   1
(PID.TID 0028.0001)  missing value: -9.990000000000E+02
(PID.TID 0028.0001)  Levels:    will be set later
(PID.TID 0028.0001)  Fields:    WVELMASS PhiVEL   PsiVEL
(PID.TID 0028.0001) Creating Output Stream: dynDiag
(PID.TID 0028.0001) Output Frequency:     -86400.000000 ; Phase:           0.000000
(PID.TID 0028.0001)  Averaging Freq.:          0.000000 , Phase:           0.000000 , Cycle:   1
(PID.TID 0028.0001)  missing value: -9.990000000000E+02
(PID.TID 0028.0001)  Levels:    will be set later
(PID.TID 0028.0001)  Fields:    UVEL     VVEL     ETAN     ETANSQ
(PID.TID 0028.0001) -----------------------------------------------------
(PID.TID 0028.0001)  DIAGNOSTICS_READPARMS: statistics diags. summary:
(PID.TID 0028.0001) Creating Stats. Output Stream: dynStDiag
(PID.TID 0028.0001) Output Frequency:     -86400.000000 ; Phase:           0.000000
(PID.TID 0028.0001)  Regions:   0
(PID.TID 0028.0001)  Fields:    ETAN     ETANSQ   UVELSQ   VVELSQ
(PID.TID 0028.0001) -----------------------------------------------------
(PID.TID 0028.0001) 
(PID.TID 0028.0001) SET_PARMS: done
(PID.TID 0028.0001) Enter INI_VERTICAL_GRID: setInterFDr=    T ; setCenterDr=    F
(PID.TID 0028.0001) // =======================================================
(PID.TID 0028.0001) // Field Model R_low (ini_masks_etc)
(PID.TID 0028.0001) // CMIN =         -4.000000000000000E+03
(PID.TID 0028.0001) // CMAX =         -4.000000000000000E+03
(PID.TID 0028.0001) // CINT =          0.000000000000000E+00
(PID.TID 0028.0001) // SYMBOLS (CMIN->CMAX): -abcdefghijklmnopqrstuvwxyz+
(PID.TID 0028.0001) //                  0.0: .
(PID.TID 0028.0001) // RANGE I (Lo:Hi:Step):(   839:   962:     1)
(PID.TID 0028.0001) // RANGE J (Lo:Hi:Step):(   182:    -1:    -1)
(PID.TID 0028.0001) // RANGE K (Lo:Hi:Step):(   1:   1:   1)
(PID.TID 0028.0001) // =======================================================
(PID.TID 0028.0001) // =======================================================
(PID.TID 0028.0001) // END OF FIELD                                          =
(PID.TID 0028.0001) // =======================================================
(PID.TID 0028.0001) 
(PID.TID 0028.0001) // =======================================================
(PID.TID 0028.0001) // Field Model Ro_surf (ini_masks_etc)
(PID.TID 0028.0001) // CMIN =          1.000000000000000E+32
(PID.TID 0028.0001) // CMAX =         -1.000000000000000E+32
(PID.TID 0028.0001) // CINT =          0.000000000000000E+00
(PID.TID 0028.0001) // SYMBOLS (CMIN->CMAX): -abcdefghijklmnopqrstuvwxyz+
(PID.TID 0028.0001) //                  0.0: .
(PID.TID 0028.0001) // RANGE I (Lo:Hi:Step):(   839:   962:     1)
(PID.TID 0028.0001) // RANGE J (Lo:Hi:Step):(   182:    -1:    -1)
(PID.TID 0028.0001) // RANGE K (Lo:Hi:Step):(   1:   1:   1)
(PID.TID 0028.0001) // =======================================================
(PID.TID 0028.0001) // =======================================================
(PID.TID 0028.0001) // END OF FIELD                                          =
(PID.TID 0028.0001) // =======================================================
(PID.TID 0028.0001) 
(PID.TID 0028.0001) // =======================================================
(PID.TID 0028.0001) // Field hFacC at iteration          0
(PID.TID 0028.0001) // CMIN =          1.000000000000000E+00
(PID.TID 0028.0001) // CMAX =          1.000000000000000E+00
(PID.TID 0028.0001) // CINT =          0.000000000000000E+00
(PID.TID 0028.0001) // SYMBOLS (CMIN->CMAX): -abcdefghijklmnopqrstuvwxyz+
(PID.TID 0028.0001) //                  0.0: .
(PID.TID 0028.0001) // RANGE I (Lo:Hi:Step):(   839:   962:     1)
(PID.TID 0028.0001) // RANGE J (Lo:Hi:Step):(   182:    -1:    -1)
(PID.TID 0028.0001) // RANGE K (Lo:Hi:Step):(   1:   1:   1)
(PID.TID 0028.0001) // =======================================================
(PID.TID 0028.0001) // =======================================================
(PID.TID 0028.0001) // END OF FIELD                                          =
(PID.TID 0028.0001) // =======================================================
(PID.TID 0028.0001) 
(PID.TID 0028.0001) // =======================================================
(PID.TID 0028.0001) // Field hFacW at iteration          0
(PID.TID 0028.0001) // CMIN =          1.000000000000000E+00
(PID.TID 0028.0001) // CMAX =          1.000000000000000E+00
(PID.TID 0028.0001) // CINT =          0.000000000000000E+00
(PID.TID 0028.0001) // SYMBOLS (CMIN->CMAX): -abcdefghijklmnopqrstuvwxyz+
(PID.TID 0028.0001) //                  0.0: .
(PID.TID 0028.0001) // RANGE I (Lo:Hi:Step):(   839:   962:     1)
(PID.TID 0028.0001) // RANGE J (Lo:Hi:Step):(   182:    -1:    -1)
(PID.TID 0028.0001) // RANGE K (Lo:Hi:Step):(   1:   1:   1)
(PID.TID 0028.0001) // =======================================================
(PID.TID 0028.0001) // =======================================================
(PID.TID 0028.0001) // END OF FIELD                                          =
(PID.TID 0028.0001) // =======================================================
(PID.TID 0028.0001) 
(PID.TID 0028.0001) // =======================================================
(PID.TID 0028.0001) // Field hFacS at iteration          0
(PID.TID 0028.0001) // CMIN =          1.000000000000000E+00
(PID.TID 0028.0001) // CMAX =          1.000000000000000E+00
(PID.TID 0028.0001) // CINT =          0.000000000000000E+00
(PID.TID 0028.0001) // SYMBOLS (CMIN->CMAX): -abcdefghijklmnopqrstuvwxyz+
(PID.TID 0028.0001) //                  0.0: .
(PID.TID 0028.0001) // RANGE I (Lo:Hi:Step):(   839:   962:     1)
(PID.TID 0028.0001) // RANGE J (Lo:Hi:Step):(   182:    -1:    -1)
(PID.TID 0028.0001) // RANGE K (Lo:Hi:Step):(   1:   1:   1)
(PID.TID 0028.0001) // =======================================================
(PID.TID 0028.0001) // =======================================================
(PID.TID 0028.0001) // END OF FIELD                                          =
(PID.TID 0028.0001) // =======================================================
(PID.TID 0028.0001) 
(PID.TID 0028.0001) ------------------------------------------------------------
(PID.TID 0028.0001) DIAGNOSTICS_SET_LEVELS: done
(PID.TID 0028.0001)  Total Nb of available Diagnostics: ndiagt=   104
(PID.TID 0028.0001) SETDIAG: Allocate  1 x  1 Levels for Diagnostic #    48 WVELMASS
(PID.TID 0028.0001) SETDIAG: Diag #    49 PhiVEL   processed from Diag #    46 UVELMASS
(PID.TID 0028.0001) SETDIAG: Allocate  1 x  1 Levels for Diagnostic #    46 UVELMASS
(PID.TID 0028.0001) SETDIAG: Allocate  1 x  1 Levels for Mate Diag. #    47 VVELMASS
(PID.TID 0028.0001) SETDIAG: Diag #    50 PsiVEL   processed from Diag #    49 PhiVEL
(PID.TID 0028.0001) - NOTE - SETDIAG:  Diagnostic  #    49 PhiVEL   is already set
(PID.TID 0028.0001) SETDIAG: Allocate  1 x  1 Levels for Diagnostic #    30 UVEL
(PID.TID 0028.0001) SETDIAG: Allocate  1 x  1 Levels for Diagnostic #    31 VVEL
(PID.TID 0028.0001) SETDIAG: Allocate  1 x  1 Levels for Diagnostic #    23 ETAN
(PID.TID 0028.0001) SETDIAG: Allocate  1 x  1 Levels for Diagnostic #    24 ETANSQ
(PID.TID 0028.0001)   space allocated for all diagnostics:       7 levels
(PID.TID 0028.0001)   set mate pointer for diag #    46  UVELMASS , Parms: UUr     MR , mate:    47
(PID.TID 0028.0001)   set mate pointer for diag #    47  VVELMASS , Parms: VVr     MR , mate:    46
(PID.TID 0028.0001)   set mate pointer for diag #    30  UVEL     , Parms: UUR     MR , mate:    31
(PID.TID 0028.0001)   set mate pointer for diag #    31  VVEL     , Parms: VVR     MR , mate:    30
(PID.TID 0028.0001) DIAGNOSTICS_SET_POINTERS: Set levels for Outp.Stream: dyn_Aux
(PID.TID 0028.0001)  Levels:       1.
(PID.TID 0028.0001) DIAGNOSTICS_SET_POINTERS: Set levels for Outp.Stream: dynDiag
(PID.TID 0028.0001)  Levels:       1.
(PID.TID 0028.0001) DIAGNOSTICS_SET_POINTERS: done, use       7 levels (numDiags =      20 )
(PID.TID 0028.0001) ------------------------------------------------------------
(PID.TID 0028.0001) DIAGNOSTICS_SET_CALC: setting indices iPsi0,jPsi0 where Psi == 0 :
(PID.TID 0028.0001) DIAGNOSTICS_SET_CALC: d2Min=       0.000000E+00, ijMin=      524717.000
(PID.TID 0028.0001) ------------------------------------------------------------
(PID.TID 0028.0001) DIAGSTATS_SET_REGIONS: define no region
(PID.TID 0028.0001) ------------------------------------------------------------
(PID.TID 0028.0001) SETDIAG: Allocate  1 Levels for Stats-Diag #    23 ETAN
(PID.TID 0028.0001) SETDIAG: Allocate  1 Levels for Stats-Diag #    24 ETANSQ
(PID.TID 0028.0001) SETDIAG: Allocate  1 Levels for Stats-Diag #    36 UVELSQ
(PID.TID 0028.0001) SETDIAG: Allocate  1 Levels for Stats-Diag #    37 VVELSQ
(PID.TID 0028.0001)   space allocated for all stats-diags:       4 levels
(PID.TID 0028.0001) DIAGSTATS_SET_POINTERS: done, use       4 levels (diagSt_size=      10 )
(PID.TID 0028.0001) ------------------------------------------------------------
(PID.TID 0028.0001) INI_CG2D: CG2D normalisation factor =  5.4541495858417379E-07
(PID.TID 0028.0001) 
(PID.TID 0028.0001) // =======================================================
(PID.TID 0028.0001) // Model configuration
(PID.TID 0028.0001) // =======================================================
(PID.TID 0028.0001) //
(PID.TID 0028.0001) // "Physical" paramters ( PARM01 in namelist )
(PID.TID 0028.0001) //
(PID.TID 0028.0001) buoyancyRelation = /* Type of relation to get Buoyancy */
(PID.TID 0028.0001)               'OCEANIC'
(PID.TID 0028.0001)     ;
(PID.TID 0028.0001) fluidIsAir   =  /* fluid major constituent is Air */
(PID.TID 0028.0001)                   F
(PID.TID 0028.0001)     ;
(PID.TID 0028.0001) fluidIsWater =  /* fluid major constituent is Water */
(PID.TID 0028.0001)                   T
(PID.TID 0028.0001)     ;
(PID.TID 0028.0001) usingPCoords =  /* use p (or p*) vertical coordinate */
(PID.TID 0028.0001)                   F
(PID.TID 0028.0001)     ;
(PID.TID 0028.0001) usingZCoords =  /* use z (or z*) vertical coordinate */
(PID.TID 0028.0001)                   T
(PID.TID 0028.0001)     ;
(PID.TID 0028.0001) tRef =   /* Reference temperature profile ( oC or K ) */
(PID.TID 0028.0001)                 2.000000000000000E+01       /* K =  1 */
(PID.TID 0028.0001)     ;
(PID.TID 0028.0001) sRef =   /* Reference salinity profile ( g/kg ) */
(PID.TID 0028.0001)                 3.000000000000000E+01       /* K =  1 */
(PID.TID 0028.0001)     ;
(PID.TID 0028.0001) rhoRef =   /* Density vertical profile from (Ref,sRef)( kg/m^3 ) */
(PID.TID 0028.0001)                 9.998000000000000E+02       /* K =  1 */
(PID.TID 0028.0001)     ;
(PID.TID 0028.0001) dBdrRef = /* Vertical grad. of reference buoyancy [(m/s/r)^2] */
(PID.TID 0028.0001)                 0.000000000000000E+00       /* K =  1 */
(PID.TID 0028.0001)     ;
(PID.TID 0028.0001) useStrainTensionVisc= /* Use StrainTension Form of Viscous Operator */
(PID.TID 0028.0001)                   F
(PID.TID 0028.0001)     ;
(PID.TID 0028.0001) useVariableVisc = /* Use variable horizontal viscosity */
(PID.TID 0028.0001)                   F
(PID.TID 0028.0001)     ;
(PID.TID 0028.0001) useHarmonicVisc = /* Use harmonic horizontal viscosity */
(PID.TID 0028.0001)                   F
(PID.TID 0028.0001)     ;
(PID.TID 0028.0001) useBiharmonicVisc= /* Use biharmonic horiz.  viscosity */
(PID.TID 0028.0001)                   F
(PID.TID 0028.0001)     ;
(PID.TID 0028.0001) useSmag3D = /* Use isotropic 3-D Smagorinsky viscosity */
(PID.TID 0028.0001)                   F
(PID.TID 0028.0001)     ;
(PID.TID 0028.0001) viscAh  =   /* Lateral harmonic viscosity ( m^2/s ) */
(PID.TID 0028.0001)                 0.000000000000000E+00
(PID.TID 0028.0001)     ;
(PID.TID 0028.0001) viscA4  =   /* Lateral biharmonic viscosity ( m^4/s ) */
(PID.TID 0028.0001)                 0.000000000000000E+00
(PID.TID 0028.0001)     ;
(PID.TID 0028.0001) no_slip_sides =  /* Viscous BCs: No-slip sides */
(PID.TID 0028.0001)                   F
(PID.TID 0028.0001)     ;
(PID.TID 0028.0001) sideDragFactor = /* side-drag scaling factor (non-dim) */
(PID.TID 0028.0001)                 2.000000000000000E+00
(PID.TID 0028.0001)     ;
(PID.TID 0028.0001) viscArNr = /* vertical profile of vertical viscosity ( m^2/s )*/
(PID.TID 0028.0001)                 0.000000000000000E+00       /* K =  1 */
(PID.TID 0028.0001)     ;
(PID.TID 0028.0001) no_slip_bottom =  /* Viscous BCs: No-slip bottom */
(PID.TID 0028.0001)                   F
(PID.TID 0028.0001)     ;
(PID.TID 0028.0001) bottomVisc_pCell = /* Partial-cell in bottom Visc. BC */
(PID.TID 0028.0001)                   F
(PID.TID 0028.0001)     ;
(PID.TID 0028.0001) bottomDragLinear = /* linear bottom-drag coefficient ( m/s ) */
(PID.TID 0028.0001)                 0.000000000000000E+00
(PID.TID 0028.0001)     ;
(PID.TID 0028.0001) bottomDragQuadratic = /* quadratic bottom-drag coefficient (-) */
(PID.TID 0028.0001)                 0.000000000000000E+00
(PID.TID 0028.0001)     ;
(PID.TID 0028.0001) selectBotDragQuadr = /* select quadratic bottom drag options */
(PID.TID 0028.0001)                      -1
(PID.TID 0028.0001)     ;
(PID.TID 0028.0001) diffKhT =   /* Laplacian diffusion of heat laterally ( m^2/s ) */
(PID.TID 0028.0001)                 0.000000000000000E+00
(PID.TID 0028.0001)     ;
(PID.TID 0028.0001) diffK4T =   /* Biharmonic diffusion of heat laterally ( m^4/s ) */
(PID.TID 0028.0001)                 0.000000000000000E+00
(PID.TID 0028.0001)     ;
(PID.TID 0028.0001) diffKhS =   /* Laplacian diffusion of salt laterally ( m^2/s ) */
(PID.TID 0028.0001)                 0.000000000000000E+00
(PID.TID 0028.0001)     ;
(PID.TID 0028.0001) diffK4S =   /* Biharmonic diffusion of salt laterally ( m^4/s ) */
(PID.TID 0028.0001)                 0.000000000000000E+00
(PID.TID 0028.0001)     ;
(PID.TID 0028.0001) diffKrNrT = /* vertical profile of vertical diffusion of Temp ( m^2/s )*/
(PID.TID 0028.0001)                 0.000000000000000E+00       /* K =  1 */
(PID.TID 0028.0001)     ;
(PID.TID 0028.0001) diffKrNrS = /* vertical profile of vertical diffusion of Salt ( m^2/s )*/
(PID.TID 0028.0001)                 0.000000000000000E+00       /* K =  1 */
(PID.TID 0028.0001)     ;
(PID.TID 0028.0001) diffKrBL79surf = /* Surface diffusion for Bryan and Lewis 79 ( m^2/s ) */
(PID.TID 0028.0001)                 0.000000000000000E+00
(PID.TID 0028.0001)     ;
(PID.TID 0028.0001) diffKrBL79deep = /* Deep diffusion for Bryan and Lewis 1979 ( m^2/s ) */
(PID.TID 0028.0001)                 0.000000000000000E+00
(PID.TID 0028.0001)     ;
(PID.TID 0028.0001) diffKrBL79scl = /* Depth scale for Bryan and Lewis 1979 ( m ) */
(PID.TID 0028.0001)                 2.000000000000000E+02
(PID.TID 0028.0001)     ;
(PID.TID 0028.0001) diffKrBL79Ho = /* Turning depth for Bryan and Lewis 1979 ( m ) */
(PID.TID 0028.0001)                -2.000000000000000E+03
(PID.TID 0028.0001)     ;
(PID.TID 0028.0001) ivdc_kappa = /* Implicit Vertical Diffusivity for Convection ( m^2/s) */
(PID.TID 0028.0001)                 0.000000000000000E+00
(PID.TID 0028.0001)     ;
(PID.TID 0028.0001) hMixCriteria=  /* Criteria for mixed-layer diagnostic */
(PID.TID 0028.0001)                -8.000000000000000E-01
(PID.TID 0028.0001)     ;
(PID.TID 0028.0001) dRhoSmall =  /* Parameter for mixed-layer diagnostic */
(PID.TID 0028.0001)                 1.000000000000000E-06
(PID.TID 0028.0001)     ;
(PID.TID 0028.0001) hMixSmooth=  /* Smoothing parameter for mixed-layer diagnostic */
(PID.TID 0028.0001)                 0.000000000000000E+00
(PID.TID 0028.0001)     ;
(PID.TID 0028.0001) eosType =  /* Type of Equation of State */
(PID.TID 0028.0001)               'LINEAR'
(PID.TID 0028.0001)     ;
(PID.TID 0028.0001) tAlpha = /* Linear EOS thermal expansion coefficient ( 1/oC ) */
(PID.TID 0028.0001)                 0.000000000000000E+00
(PID.TID 0028.0001)     ;
(PID.TID 0028.0001) sBeta  = /* Linear EOS haline contraction coefficient ( 1/(g/kg) ) */
(PID.TID 0028.0001)                 0.000000000000000E+00
(PID.TID 0028.0001)     ;
(PID.TID 0028.0001) rhoNil    = /* Reference density for Linear EOS ( kg/m^3 ) */
(PID.TID 0028.0001)                 9.998000000000000E+02
(PID.TID 0028.0001)     ;
(PID.TID 0028.0001) selectP_inEOS_Zc = /* select pressure to use in EOS (0,1,2,3) */
(PID.TID 0028.0001)                       0
(PID.TID 0028.0001)     0= -g*rhoConst*z ; 1= pRef (from tRef,sRef); 2= Hyd P ; 3= Hyd+NH P
(PID.TID 0028.0001)     ;
(PID.TID 0028.0001) surf_pRef = /* Surface reference pressure ( Pa ) */
(PID.TID 0028.0001)                 1.013250000000000E+05
(PID.TID 0028.0001)     ;
(PID.TID 0028.0001) HeatCapacity_Cp =  /* Specific heat capacity ( J/kg/K ) */
(PID.TID 0028.0001)                 3.994000000000000E+03
(PID.TID 0028.0001)     ;
(PID.TID 0028.0001) celsius2K = /* 0 degree Celsius converted to Kelvin ( K ) */
(PID.TID 0028.0001)                 2.731500000000000E+02
(PID.TID 0028.0001)     ;
(PID.TID 0028.0001) rhoConst  = /* Reference density (Boussinesq)  ( kg/m^3 ) */
(PID.TID 0028.0001)                 1.000000000000000E+03
(PID.TID 0028.0001)     ;
(PID.TID 0028.0001) rhoFacC = /* normalized Reference density @ cell-Center (-) */
(PID.TID 0028.0001)                 1.000000000000000E+00       /* K =  1 */
(PID.TID 0028.0001)     ;
(PID.TID 0028.0001) rhoFacF = /* normalized Reference density @ W-Interface (-) */
(PID.TID 0028.0001)     2 @  1.000000000000000E+00              /* K =  1:  2 */
(PID.TID 0028.0001)     ;
(PID.TID 0028.0001) rhoConstFresh = /* Fresh-water reference density ( kg/m^3 ) */
(PID.TID 0028.0001)                 1.000000000000000E+03
(PID.TID 0028.0001)     ;
(PID.TID 0028.0001) gravity =   /* Gravitational acceleration ( m/s^2 ) */
(PID.TID 0028.0001)                 9.810000000000000E+00
(PID.TID 0028.0001)     ;
(PID.TID 0028.0001) gBaro =   /* Barotropic gravity ( m/s^2 ) */
(PID.TID 0028.0001)                 9.810000000000000E+00
(PID.TID 0028.0001)     ;
(PID.TID 0028.0001) gravFacC = /* gravity factor (vs surf.) @ cell-Center (-) */
(PID.TID 0028.0001)                 1.000000000000000E+00       /* K =  1 */
(PID.TID 0028.0001)     ;
(PID.TID 0028.0001) gravFacF = /* gravity factor (vs surf.) @ W-Interface (-) */
(PID.TID 0028.0001)     2 @  1.000000000000000E+00              /* K =  1:  2 */
(PID.TID 0028.0001)     ;
(PID.TID 0028.0001) rotationPeriod =   /* Rotation Period ( s ) */
(PID.TID 0028.0001)                 8.616545950602833E+04
(PID.TID 0028.0001)     ;
(PID.TID 0028.0001) omega =   /* Angular velocity ( rad/s ) */
(PID.TID 0028.0001)                 7.292000000000000E-05
(PID.TID 0028.0001)     ;
(PID.TID 0028.0001) f0 =   /* Reference coriolis parameter ( 1/s ) */
(PID.TID 0028.0001)                 1.000000000000000E-04
(PID.TID 0028.0001)     ;
(PID.TID 0028.0001) beta =   /* Beta ( 1/(m.s) ) */
(PID.TID 0028.0001)                 9.999999999999999E-12
(PID.TID 0028.0001)     ;
(PID.TID 0028.0001) fPrime =   /* Second coriolis parameter ( 1/s ) */
(PID.TID 0028.0001)                 0.000000000000000E+00
(PID.TID 0028.0001)     ;
(PID.TID 0028.0001) rigidLid =   /* Rigid lid on/off flag */
(PID.TID 0028.0001)                   F
(PID.TID 0028.0001)     ;
(PID.TID 0028.0001) implicitFreeSurface =   /* Implicit free surface on/off flag */
(PID.TID 0028.0001)                   T
(PID.TID 0028.0001)     ;
(PID.TID 0028.0001) freeSurfFac =   /* Implicit free surface factor */
(PID.TID 0028.0001)                 1.000000000000000E+00
(PID.TID 0028.0001)     ;
(PID.TID 0028.0001) implicSurfPress =  /* Surface Pressure implicit factor (0-1) */
(PID.TID 0028.0001)                 1.000000000000000E+00
(PID.TID 0028.0001)     ;
(PID.TID 0028.0001) implicDiv2DFlow =  /* Barot. Flow Div. implicit factor (0-1) */
(PID.TID 0028.0001)                 1.000000000000000E+00
(PID.TID 0028.0001)     ;
(PID.TID 0028.0001) uniformLin_PhiSurf = /* use uniform Bo_surf on/off flag */
(PID.TID 0028.0001)                   T
(PID.TID 0028.0001)     ;
(PID.TID 0028.0001) uniformFreeSurfLev = /* free-surface level-index is uniform */
(PID.TID 0028.0001)                   T
(PID.TID 0028.0001)     ;
(PID.TID 0028.0001) sIceLoadFac =  /* scale factor for sIceLoad (0-1) */
(PID.TID 0028.0001)                 1.000000000000000E+00
(PID.TID 0028.0001)     ;
(PID.TID 0028.0001) hFacMin =   /* minimum partial cell factor (hFac) */
(PID.TID 0028.0001)                 1.000000000000000E-05
(PID.TID 0028.0001)     ;
(PID.TID 0028.0001) hFacMinDr = /* minimum partial cell thickness ( m) */
(PID.TID 0028.0001)                 5.000000000000000E-01
(PID.TID 0028.0001)     ;
(PID.TID 0028.0001) exactConserv = /* Update etaN from continuity Eq on/off flag */
(PID.TID 0028.0001)                   T
(PID.TID 0028.0001)     ;
(PID.TID 0028.0001) linFSConserveTr = /* Tracer correction for Lin Free Surface on/off flag */
(PID.TID 0028.0001)                   F
(PID.TID 0028.0001)     ;
(PID.TID 0028.0001) nonlinFreeSurf = /* Non-linear Free Surf. options (-1,0,1,2,3)*/
(PID.TID 0028.0001)                       0
(PID.TID 0028.0001)      -1,0= Off ; 1,2,3= On, 2=+rescale gU,gV, 3=+update cg2d solv.
(PID.TID 0028.0001)     ;
(PID.TID 0028.0001) hFacInf =   /* lower threshold for hFac (nonlinFreeSurf only)*/
(PID.TID 0028.0001)                 2.000000000000000E-01
(PID.TID 0028.0001)     ;
(PID.TID 0028.0001) hFacSup =   /* upper threshold for hFac (nonlinFreeSurf only)*/
(PID.TID 0028.0001)                 2.000000000000000E+00
(PID.TID 0028.0001)     ;
(PID.TID 0028.0001) select_rStar = /* r* Vertical coord. options (=0 r coord.; >0 uses r*)*/
(PID.TID 0028.0001)                       0
(PID.TID 0028.0001)     ;
(PID.TID 0028.0001) useRealFreshWaterFlux = /* Real Fresh Water Flux on/off flag*/
(PID.TID 0028.0001)                   F
(PID.TID 0028.0001)     ;
(PID.TID 0028.0001) temp_EvPrRn = /* Temp. of Evap/Prec/R (UNSET=use local T)(oC)*/
(PID.TID 0028.0001)                 1.234567000000000E+05
(PID.TID 0028.0001)     ;
(PID.TID 0028.0001) salt_EvPrRn = /* Salin. of Evap/Prec/R (UNSET=use local S)(g/kg)*/
(PID.TID 0028.0001)                 0.000000000000000E+00
(PID.TID 0028.0001)     ;
(PID.TID 0028.0001) selectAddFluid = /* option for mass source/sink of fluid (=0: off) */
(PID.TID 0028.0001)                       0
(PID.TID 0028.0001)     ;
(PID.TID 0028.0001) temp_addMass = /* Temp. of addMass array (UNSET=use local T)(oC)*/
(PID.TID 0028.0001)                 1.234567000000000E+05
(PID.TID 0028.0001)     ;
(PID.TID 0028.0001) salt_addMass = /* Salin. of addMass array (UNSET=use local S)(g/kg)*/
(PID.TID 0028.0001)                 0.000000000000000E+00
(PID.TID 0028.0001)     ;
(PID.TID 0028.0001) convertFW2Salt = /* convert F.W. Flux to Salt Flux (-1=use local S)(g/kg)*/
(PID.TID 0028.0001)                 3.500000000000000E+01
(PID.TID 0028.0001)     ;
(PID.TID 0028.0001) use3Dsolver = /* use 3-D pressure solver on/off flag */
(PID.TID 0028.0001)                   F
(PID.TID 0028.0001)     ;
(PID.TID 0028.0001) nonHydrostatic =  /* Non-Hydrostatic on/off flag */
(PID.TID 0028.0001)                   F
(PID.TID 0028.0001)     ;
(PID.TID 0028.0001) nh_Am2 = /* Non-Hydrostatic terms scaling factor */
(PID.TID 0028.0001)                 1.000000000000000E+00
(PID.TID 0028.0001)     ;
(PID.TID 0028.0001) implicitNHPress = /* Non-Hyd Pressure implicit factor (0-1)*/
(PID.TID 0028.0001)                 1.000000000000000E+00
(PID.TID 0028.0001)     ;
(PID.TID 0028.0001) selectNHfreeSurf = /* Non-Hyd (free-)Surface option */
(PID.TID 0028.0001)                       0
(PID.TID 0028.0001)     ;
(PID.TID 0028.0001) quasiHydrostatic = /* Quasi-Hydrostatic on/off flag */
(PID.TID 0028.0001)                   F
(PID.TID 0028.0001)     ;
(PID.TID 0028.0001) calc_wVelocity = /* vertical velocity calculation on/off flag */
(PID.TID 0028.0001)                   T
(PID.TID 0028.0001)     ;
(PID.TID 0028.0001) momStepping =  /* Momentum equation on/off flag */
(PID.TID 0028.0001)                   F
(PID.TID 0028.0001)     ;
(PID.TID 0028.0001) vectorInvariantMomentum= /* Vector-Invariant Momentum on/off */
(PID.TID 0028.0001)                   F
(PID.TID 0028.0001)     ;
(PID.TID 0028.0001) momAdvection =  /* Momentum advection on/off flag */
(PID.TID 0028.0001)                   F
(PID.TID 0028.0001)     ;
(PID.TID 0028.0001) momViscosity =  /* Momentum viscosity on/off flag */
(PID.TID 0028.0001)                   F
(PID.TID 0028.0001)     ;
(PID.TID 0028.0001) momImplVertAdv= /* Momentum implicit vert. advection on/off*/
(PID.TID 0028.0001)                   F
(PID.TID 0028.0001)     ;
(PID.TID 0028.0001) implicitViscosity = /* Implicit viscosity on/off flag */
(PID.TID 0028.0001)                   F
(PID.TID 0028.0001)     ;
(PID.TID 0028.0001) selectImplicitDrag= /* Implicit bot Drag options (0,1,2)*/
(PID.TID 0028.0001)                       0
(PID.TID 0028.0001)     0= Expl. ; 1= Impl. on provis. Vel ; 2= Fully Impl (with surf.P)
(PID.TID 0028.0001)     ;
(PID.TID 0028.0001) selectMetricTerms= /* Scheme selector for Horizontal Metric Terms */
(PID.TID 0028.0001)                       0
(PID.TID 0028.0001)    = 0 : Off (ignore Spherical/Cylindrical Metric Terms)
(PID.TID 0028.0001)    = 1 : original discretization
(PID.TID 0028.0001)    = 2 : using (Spherical) grid-spacing
(PID.TID 0028.0001)    = 3 : as 2 but gU-Metric inside Advection
(PID.TID 0028.0001)     ;
(PID.TID 0028.0001) useNHMTerms = /* Non-Hydrostatic Metric-Terms on/off */
(PID.TID 0028.0001)                   F
(PID.TID 0028.0001)     ;
(PID.TID 0028.0001) useCoriolis =  /* Coriolis on/off flag */
(PID.TID 0028.0001)                   F
(PID.TID 0028.0001)     ;
(PID.TID 0028.0001) useCDscheme =  /* CD scheme on/off flag */
(PID.TID 0028.0001)                   F
(PID.TID 0028.0001)     ;
(PID.TID 0028.0001) selectCoriMap = /* Coriolis Map options (0,1,2,3)*/
(PID.TID 0028.0001)                       2
(PID.TID 0028.0001)     0= f-Plane ; 1= Beta-Plane ; 2= Spherical ; 3= read from file
(PID.TID 0028.0001)     ;
(PID.TID 0028.0001) select3dCoriScheme= /* Scheme selector for 3-D Coriolis-Term */
(PID.TID 0028.0001)                       0
(PID.TID 0028.0001)    = 0 : Off (ignore 3-D Coriolis Terms in Omega.Cos(Lat) )
(PID.TID 0028.0001)    = 1 : original discretization ; = 2 : using averaged Transport
(PID.TID 0028.0001)    = 3 : same as 2 with hFac in gW_Cor
(PID.TID 0028.0001)     ;
(PID.TID 0028.0001) selectCoriScheme= /* Scheme selector for Coriolis-Term */
(PID.TID 0028.0001)                       0
(PID.TID 0028.0001)    = 0 : original discretization (simple averaging, no hFac)
(PID.TID 0028.0001)    = 1 : Wet-point averaging (Jamar & Ozer 1986)
(PID.TID 0028.0001)    = 2 : energy conserving scheme (no hFac weight)
(PID.TID 0028.0001)    = 3 : energy conserving scheme using Wet-point averaging
(PID.TID 0028.0001)    = 4 : hFac weighted average (Angular Mom. conserving)
(PID.TID 0028.0001)     ;
(PID.TID 0028.0001) momForcing =  /* Momentum forcing on/off flag */
(PID.TID 0028.0001)                   F
(PID.TID 0028.0001)     ;
(PID.TID 0028.0001) momPressureForcing =  /* Momentum pressure term on/off flag */
(PID.TID 0028.0001)                   F
(PID.TID 0028.0001)     ;
(PID.TID 0028.0001) implicitIntGravWave= /* Implicit Internal Gravity Wave flag */
(PID.TID 0028.0001)                   F
(PID.TID 0028.0001)     ;
(PID.TID 0028.0001) staggerTimeStep =    /* Stagger time stepping on/off flag */
(PID.TID 0028.0001)                   F
(PID.TID 0028.0001)     ;
(PID.TID 0028.0001) doResetHFactors = /* reset thickness factors @ each time-step */
(PID.TID 0028.0001)                   F
(PID.TID 0028.0001)     ;
(PID.TID 0028.0001) multiDimAdvection =  /* enable/disable Multi-Dim Advection */
(PID.TID 0028.0001)                   T
(PID.TID 0028.0001)     ;
(PID.TID 0028.0001) useMultiDimAdvec =   /* Multi-Dim Advection is/is-not used */
(PID.TID 0028.0001)                   F
(PID.TID 0028.0001)     ;
(PID.TID 0028.0001) implicitDiffusion = /* Implicit Diffusion on/off flag */
(PID.TID 0028.0001)                   F
(PID.TID 0028.0001)     ;
(PID.TID 0028.0001) tempStepping =  /* Temperature equation on/off flag */
(PID.TID 0028.0001)                   F
(PID.TID 0028.0001)     ;
(PID.TID 0028.0001) tempAdvection = /* Temperature advection on/off flag */
(PID.TID 0028.0001)                   F
(PID.TID 0028.0001)     ;
(PID.TID 0028.0001) tempImplVertAdv = /* Temp. implicit vert. advection on/off */
(PID.TID 0028.0001)                   F
(PID.TID 0028.0001)     ;
(PID.TID 0028.0001) tempForcing  =  /* Temperature forcing on/off flag */
(PID.TID 0028.0001)                   F
(PID.TID 0028.0001)     ;
(PID.TID 0028.0001) selectPenetratingSW = /* short wave penetration selector */
(PID.TID 0028.0001)                       0
(PID.TID 0028.0001)     ;
(PID.TID 0028.0001) doThetaClimRelax = /* apply SST relaxation on/off flag */
(PID.TID 0028.0001)                   F
(PID.TID 0028.0001)     ;
(PID.TID 0028.0001) tempIsActiveTr = /* Temp. is a dynamically Active Tracer */
(PID.TID 0028.0001)                   F
(PID.TID 0028.0001)     ;
(PID.TID 0028.0001) saltStepping =  /* Salinity equation on/off flag */
(PID.TID 0028.0001)                   F
(PID.TID 0028.0001)     ;
(PID.TID 0028.0001) saltAdvection = /* Salinity advection on/off flag */
(PID.TID 0028.0001)                   F
(PID.TID 0028.0001)     ;
(PID.TID 0028.0001) saltImplVertAdv = /* Sali. implicit vert. advection on/off */
(PID.TID 0028.0001)                   F
(PID.TID 0028.0001)     ;
(PID.TID 0028.0001) saltForcing  =  /* Salinity forcing on/off flag */
(PID.TID 0028.0001)                   F
(PID.TID 0028.0001)     ;
(PID.TID 0028.0001) doSaltClimRelax = /* apply SSS relaxation on/off flag */
(PID.TID 0028.0001)                   F
(PID.TID 0028.0001)     ;
(PID.TID 0028.0001) saltIsActiveTr = /* Salt  is a dynamically Active Tracer */
(PID.TID 0028.0001)                   F
(PID.TID 0028.0001)     ;
(PID.TID 0028.0001)  readBinaryPrec = /* Precision used for reading binary files */
(PID.TID 0028.0001)                      32
(PID.TID 0028.0001)     ;
(PID.TID 0028.0001) writeBinaryPrec = /* Precision used for writing binary files */
(PID.TID 0028.0001)                      64
(PID.TID 0028.0001)     ;
(PID.TID 0028.0001)  rwSuffixType =   /* select format of mds file suffix */
(PID.TID 0028.0001)                       0
(PID.TID 0028.0001)    = 0 : myIter (I10.10) ;   = 1 : 100*myTime (100th sec) ;
(PID.TID 0028.0001)    = 2 : myTime (seconds);   = 3 : myTime/360 (10th of hr);
(PID.TID 0028.0001)    = 4 : myTime/3600 (hours)
(PID.TID 0028.0001)     ;
(PID.TID 0028.0001)  globalFiles = /* write "global" (=not per tile) files */
(PID.TID 0028.0001)                   F
(PID.TID 0028.0001)     ;
(PID.TID 0028.0001)  useSingleCpuIO = /* only master MPI process does I/O */
(PID.TID 0028.0001)                   T
(PID.TID 0028.0001)     ;
(PID.TID 0028.0001)  useSingleCpuInput = /* only master process reads input */
(PID.TID 0028.0001)                   T
(PID.TID 0028.0001)     ;
(PID.TID 0028.0001) /* debLev[*]  : level of debug & auxiliary message printing */
(PID.TID 0028.0001) debLevZero =  0 ; /* level of disabled aux. msg printing */
(PID.TID 0028.0001)    debLevA =  1 ; /* level of minimum  aux. msg printing */
(PID.TID 0028.0001)    debLevB =  2 ; /* level of low aux. print (report read-file opening)*/
(PID.TID 0028.0001)    debLevC =  3 ; /* level of moderate debug prt (most pkgs debug msg) */
(PID.TID 0028.0001)    debLevD =  4 ; /* level of enhanced debug prt (add DEBUG_STATS prt) */
(PID.TID 0028.0001)    debLevE =  5 ; /* level of extensive debug printing */
(PID.TID 0028.0001) debugLevel =  /* select debug printing level */
(PID.TID 0028.0001)                       2
(PID.TID 0028.0001)     ;
(PID.TID 0028.0001)  plotLevel =  /* select PLOT_FIELD printing level */
(PID.TID 0028.0001)                       2
(PID.TID 0028.0001)     ;
(PID.TID 0028.0001) //
(PID.TID 0028.0001) // Elliptic solver(s) paramters ( PARM02 in namelist )
(PID.TID 0028.0001) //
(PID.TID 0028.0001) cg2dMaxIters =   /* Upper limit on 2d con. grad iterations  */
(PID.TID 0028.0001)                    5000
(PID.TID 0028.0001)     ;
(PID.TID 0028.0001) cg2dMinItersNSA =   /* Minimum number of iterations of 2d con. grad solver  */
(PID.TID 0028.0001)                       0
(PID.TID 0028.0001)     ;
(PID.TID 0028.0001) cg2dUseMinResSol= /* use cg2d last-iter(=0) / min-resid.(=1) solution */
(PID.TID 0028.0001)                       0
(PID.TID 0028.0001)     ;
(PID.TID 0028.0001) cg2dTargetResidual =   /* 2d con. grad target residual  */
(PID.TID 0028.0001)                 1.000000000000000E-10
(PID.TID 0028.0001)     ;
(PID.TID 0028.0001) cg2dTargetResWunit =   /* CG2d target residual [W units] */
(PID.TID 0028.0001)                -1.000000000000000E+00
(PID.TID 0028.0001)     ;
(PID.TID 0028.0001) cg2dPreCondFreq =   /* Freq. for updating cg2d preconditioner */
(PID.TID 0028.0001)                       1
(PID.TID 0028.0001)     ;
(PID.TID 0028.0001) useSRCGSolver =  /* use single reduction CG solver(s) */
(PID.TID 0028.0001)                   F
(PID.TID 0028.0001)     ;
(PID.TID 0028.0001) useNSACGSolver =  /* use not-self-adjoint CG solver */
(PID.TID 0028.0001)                   F
(PID.TID 0028.0001)     ;
(PID.TID 0028.0001) printResidualFreq = /* Freq. for printing CG residual */
(PID.TID 0028.0001)                      -1
(PID.TID 0028.0001)     ;
(PID.TID 0028.0001) //
(PID.TID 0028.0001) // Time stepping paramters ( PARM03 in namelist )
(PID.TID 0028.0001) //
(PID.TID 0028.0001) deltaTMom =   /* Momentum equation timestep ( s ) */
(PID.TID 0028.0001)                 6.000000000000000E+01
(PID.TID 0028.0001)     ;
(PID.TID 0028.0001) deltaTFreeSurf = /* FreeSurface equation timestep ( s ) */
(PID.TID 0028.0001)                 6.000000000000000E+01
(PID.TID 0028.0001)     ;
(PID.TID 0028.0001) dTtracerLev =  /* Tracer equation timestep ( s ) */
(PID.TID 0028.0001)                 6.000000000000000E+01       /* K =  1 */
(PID.TID 0028.0001)     ;
(PID.TID 0028.0001) deltaTClock  =   /* Model clock timestep ( s ) */
(PID.TID 0028.0001)                 6.000000000000000E+01
(PID.TID 0028.0001)     ;
(PID.TID 0028.0001) cAdjFreq =   /* Convective adjustment interval ( s ) */
(PID.TID 0028.0001)                 0.000000000000000E+00
(PID.TID 0028.0001)     ;
(PID.TID 0028.0001) momForcingOutAB = /* =1: take Momentum Forcing out of Adams-Bash. stepping */
(PID.TID 0028.0001)                       0
(PID.TID 0028.0001)     ;
(PID.TID 0028.0001) tracForcingOutAB = /* =1: take T,S,pTr Forcing out of Adams-Bash. stepping */
(PID.TID 0028.0001)                       0
(PID.TID 0028.0001)     ;
(PID.TID 0028.0001) momDissip_In_AB = /* put Dissipation Tendency in Adams-Bash. stepping */
(PID.TID 0028.0001)                   T
(PID.TID 0028.0001)     ;
(PID.TID 0028.0001) doAB_onGtGs = /* apply AB on Tendencies (rather than on T,S)*/
(PID.TID 0028.0001)                   T
(PID.TID 0028.0001)     ;
(PID.TID 0028.0001) abEps =   /* Adams-Bashforth-2 stabilizing weight */
(PID.TID 0028.0001)                 1.000000000000000E-01
(PID.TID 0028.0001)     ;
(PID.TID 0028.0001) applyExchUV_early = /* Apply EXCH to U,V earlier in time-step */
(PID.TID 0028.0001)                   F
(PID.TID 0028.0001)     ;
(PID.TID 0028.0001) pickupStrictlyMatch= /* stop if pickup do not strictly match */
(PID.TID 0028.0001)                   T
(PID.TID 0028.0001)     ;
(PID.TID 0028.0001) nIter0   =   /* Run starting timestep number */
(PID.TID 0028.0001)                       0
(PID.TID 0028.0001)     ;
(PID.TID 0028.0001) nTimeSteps = /* Number of timesteps */
(PID.TID 0028.0001)                   17280
(PID.TID 0028.0001)     ;
(PID.TID 0028.0001) nEndIter =   /* Run ending timestep number */
(PID.TID 0028.0001)                   17280
(PID.TID 0028.0001)     ;
(PID.TID 0028.0001) baseTime =   /* Model base time ( s ) */
(PID.TID 0028.0001)                 0.000000000000000E+00
(PID.TID 0028.0001)     ;
(PID.TID 0028.0001) startTime =  /* Run start time ( s ) */
(PID.TID 0028.0001)                 0.000000000000000E+00
(PID.TID 0028.0001)     ;
(PID.TID 0028.0001) endTime  =   /* Integration ending time ( s ) */
(PID.TID 0028.0001)                 1.036800000000000E+06
(PID.TID 0028.0001)     ;
(PID.TID 0028.0001) pChkPtFreq = /* Permanent restart/pickup file interval ( s ) */
(PID.TID 0028.0001)                 0.000000000000000E+00
(PID.TID 0028.0001)     ;
(PID.TID 0028.0001) chkPtFreq  = /* Rolling restart/pickup file interval ( s ) */
(PID.TID 0028.0001)                 0.000000000000000E+00
(PID.TID 0028.0001)     ;
(PID.TID 0028.0001) pickup_write_mdsio =   /* Model IO flag. */
(PID.TID 0028.0001)                   T
(PID.TID 0028.0001)     ;
(PID.TID 0028.0001) pickup_read_mdsio =   /* Model IO flag. */
(PID.TID 0028.0001)                   T
(PID.TID 0028.0001)     ;
(PID.TID 0028.0001) writePickupAtEnd =   /* Model IO flag. */
(PID.TID 0028.0001)                   T
(PID.TID 0028.0001)     ;
(PID.TID 0028.0001) dumpFreq =   /* Model state write out interval ( s ). */
(PID.TID 0028.0001)                 8.640000000000000E+04
(PID.TID 0028.0001)     ;
(PID.TID 0028.0001) dumpInitAndLast= /* write out Initial & Last iter. model state */
(PID.TID 0028.0001)                   T
(PID.TID 0028.0001)     ;
(PID.TID 0028.0001) snapshot_mdsio =   /* Model IO flag. */
(PID.TID 0028.0001)                   T
(PID.TID 0028.0001)     ;
(PID.TID 0028.0001) monitorFreq =   /* Monitor output interval ( s ). */
(PID.TID 0028.0001)                 8.640000000000000E+04
(PID.TID 0028.0001)     ;
(PID.TID 0028.0001) monitorSelect = /* select group of variables to monitor */
(PID.TID 0028.0001)                       1
(PID.TID 0028.0001)     ;
(PID.TID 0028.0001) monitor_stdio =   /* Model IO flag. */
(PID.TID 0028.0001)                   T
(PID.TID 0028.0001)     ;
(PID.TID 0028.0001) externForcingPeriod =   /* forcing period (s) */
(PID.TID 0028.0001)                 0.000000000000000E+00
(PID.TID 0028.0001)     ;
(PID.TID 0028.0001) externForcingCycle =   /* period of the cyle (s). */
(PID.TID 0028.0001)                 0.000000000000000E+00
(PID.TID 0028.0001)     ;
(PID.TID 0028.0001) tauThetaClimRelax =   /* relaxation time scale (s) */
(PID.TID 0028.0001)                 0.000000000000000E+00
(PID.TID 0028.0001)     ;
(PID.TID 0028.0001) tauSaltClimRelax =   /* relaxation time scale (s) */
(PID.TID 0028.0001)                 0.000000000000000E+00
(PID.TID 0028.0001)     ;
(PID.TID 0028.0001) latBandClimRelax =   /* max. Lat. where relaxation */
(PID.TID 0028.0001)                 1.800000000000000E+02
(PID.TID 0028.0001)     ;
(PID.TID 0028.0001) //
(PID.TID 0028.0001) // Gridding paramters ( PARM04 in namelist )
(PID.TID 0028.0001) //
(PID.TID 0028.0001) usingCartesianGrid = /* Cartesian coordinates flag ( True/False ) */
(PID.TID 0028.0001)                   F
(PID.TID 0028.0001)     ;
(PID.TID 0028.0001) usingCylindricalGrid = /* Cylindrical coordinates flag ( True/False ) */
(PID.TID 0028.0001)                   F
(PID.TID 0028.0001)     ;
(PID.TID 0028.0001) usingSphericalPolarGrid = /* Spherical coordinates flag ( True/False ) */
(PID.TID 0028.0001)                   T
(PID.TID 0028.0001)     ;
(PID.TID 0028.0001) usingCurvilinearGrid = /* Curvilinear coordinates flag ( True/False ) */
(PID.TID 0028.0001)                   F
(PID.TID 0028.0001)     ;
(PID.TID 0028.0001) useMin4hFacEdges = /* set hFacW,S as minimum of adjacent hFacC factor */
(PID.TID 0028.0001)                   F
(PID.TID 0028.0001)     ;
(PID.TID 0028.0001) interViscAr_pCell = /* account for partial-cell in interior vert. viscosity */
(PID.TID 0028.0001)                   F
(PID.TID 0028.0001)     ;
(PID.TID 0028.0001) interDiffKr_pCell = /* account for partial-cell in interior vert. diffusion */
(PID.TID 0028.0001)                   F
(PID.TID 0028.0001)     ;
(PID.TID 0028.0001) pCellMix_select = /* option to enhance mixing near surface & bottom */
(PID.TID 0028.0001)                       0
(PID.TID 0028.0001)     ;
(PID.TID 0028.0001) selectSigmaCoord = /* Hybrid-Sigma Vert. Coordinate option */
(PID.TID 0028.0001)                       0
(PID.TID 0028.0001)     ;
(PID.TID 0028.0001) rSigmaBnd = /* r/sigma transition ( units of r ==  m ) */
(PID.TID 0028.0001)                 1.234567000000000E+05
(PID.TID 0028.0001)     ;
(PID.TID 0028.0001) rkSign =   /* index orientation relative to vertical coordinate */
(PID.TID 0028.0001)                -1.000000000000000E+00
(PID.TID 0028.0001)     ;
(PID.TID 0028.0001) gravitySign = /* gravity orientation relative to vertical coordinate */
(PID.TID 0028.0001)                -1.000000000000000E+00
(PID.TID 0028.0001)     ;
(PID.TID 0028.0001) seaLev_Z =  /* reference height of sea-level [m] */
(PID.TID 0028.0001)                 0.000000000000000E+00
(PID.TID 0028.0001)     ;
(PID.TID 0028.0001) top_Pres =  /* reference pressure at the top [Pa] */
(PID.TID 0028.0001)                 0.000000000000000E+00
(PID.TID 0028.0001)     ;
(PID.TID 0028.0001) mass2rUnit = /* convert mass per unit area [kg/m2] to r-units [m] */
(PID.TID 0028.0001)                 1.000000000000000E-03
(PID.TID 0028.0001)     ;
(PID.TID 0028.0001) rUnit2mass = /* convert r-units [m] to mass per unit area [kg/m2] */
(PID.TID 0028.0001)                 1.000000000000000E+03
(PID.TID 0028.0001)     ;
(PID.TID 0028.0001) drC =   /* C spacing ( units of r ) */
(PID.TID 0028.0001)     2 @  2.000000000000000E+03              /* K =  1:  2 */
(PID.TID 0028.0001)     ;
(PID.TID 0028.0001) drF =   /* W spacing ( units of r ) */
(PID.TID 0028.0001)                 4.000000000000000E+03       /* K =  1 */
(PID.TID 0028.0001)     ;
(PID.TID 0028.0001) delX = /* U spacing ( m - cartesian, degrees - spherical ) */
(PID.TID 0028.0001)  1440 @  2.500000000000000E-01              /* I =   1:1440 */
(PID.TID 0028.0001)     ;
(PID.TID 0028.0001) delY = /* V spacing ( m - cartesian, degrees - spherical ) */
(PID.TID 0028.0001)   720 @  2.500000000000000E-01              /* J =  1:720 */
(PID.TID 0028.0001)     ;
(PID.TID 0028.0001) xgOrigin = /* X-axis origin of West  edge (cartesian: m, lat-lon: deg) */
(PID.TID 0028.0001)                 0.000000000000000E+00
(PID.TID 0028.0001)     ;
(PID.TID 0028.0001) ygOrigin = /* Y-axis origin of South edge (cartesian: m, lat-lon: deg) */
(PID.TID 0028.0001)                -9.000000000000000E+01
(PID.TID 0028.0001)     ;
(PID.TID 0028.0001) rSphere =  /* Radius ( ignored - cartesian, m - spherical ) */
(PID.TID 0028.0001)                 6.371000000000000E+06
(PID.TID 0028.0001)     ;
(PID.TID 0028.0001) deepAtmosphere = /* Deep/Shallow Atmosphere flag (True/False) */
(PID.TID 0028.0001)                   F
(PID.TID 0028.0001)     ;
(PID.TID 0028.0001) xC =  /* xC(:,1,:,1) : P-point X coord ( deg. or m if cartesian) */
(PID.TID 0028.0001)                 2.101250000000000E+02,      /* I =  1 */
(PID.TID 0028.0001)                 2.103750000000000E+02,      /* I =  2 */
(PID.TID 0028.0001)                 2.106250000000000E+02,      /* I =  3 */
(PID.TID 0028.0001)      . . .
(PID.TID 0028.0001)                 2.168750000000000E+02,      /* I = 28 */
(PID.TID 0028.0001)                 2.171250000000000E+02,      /* I = 29 */
(PID.TID 0028.0001)                 2.173750000000000E+02,      /* I = 30 */
(PID.TID 0028.0001)                 2.176250000000000E+02,      /* I = 31 */
(PID.TID 0028.0001)                 2.178750000000000E+02,      /* I = 32 */
(PID.TID 0028.0001)                 2.181250000000000E+02,      /* I = 33 */
(PID.TID 0028.0001)      . . .
(PID.TID 0028.0001)                 2.243750000000000E+02,      /* I = 58 */
(PID.TID 0028.0001)                 2.246250000000000E+02,      /* I = 59 */
(PID.TID 0028.0001)                 2.248750000000000E+02,      /* I = 60 */
(PID.TID 0028.0001)                 2.251250000000000E+02,      /* I = 61 */
(PID.TID 0028.0001)                 2.253750000000000E+02,      /* I = 62 */
(PID.TID 0028.0001)                 2.256250000000000E+02,      /* I = 63 */
(PID.TID 0028.0001)      . . .
(PID.TID 0028.0001)                 2.318750000000000E+02,      /* I = 88 */
(PID.TID 0028.0001)                 2.321250000000000E+02,      /* I = 89 */
(PID.TID 0028.0001)                 2.323750000000000E+02,      /* I = 90 */
(PID.TID 0028.0001)                 2.326250000000000E+02,      /* I = 91 */
(PID.TID 0028.0001)                 2.328750000000000E+02,      /* I = 92 */
(PID.TID 0028.0001)                 2.331250000000000E+02,      /* I = 93 */
(PID.TID 0028.0001)      . . .
(PID.TID 0028.0001)                 2.393750000000000E+02,      /* I =118 */
(PID.TID 0028.0001)                 2.396250000000000E+02,      /* I =119 */
(PID.TID 0028.0001)                 2.398750000000000E+02       /* I =120 */
(PID.TID 0028.0001)     ;
(PID.TID 0028.0001) yC =  /* yC(1,:,1,:) : P-point Y coord ( deg. or m if cartesian) */
(PID.TID 0028.0001)                -8.987500000000000E+01,      /* J =  1 */
(PID.TID 0028.0001)                -8.962500000000000E+01,      /* J =  2 */
(PID.TID 0028.0001)                -8.937500000000000E+01,      /* J =  3 */
(PID.TID 0028.0001)      . . .
(PID.TID 0028.0001)                -7.937500000000000E+01,      /* J = 43 */
(PID.TID 0028.0001)                -7.912500000000000E+01,      /* J = 44 */
(PID.TID 0028.0001)                -7.887500000000000E+01,      /* J = 45 */
(PID.TID 0028.0001)                -7.862500000000000E+01,      /* J = 46 */
(PID.TID 0028.0001)                -7.837500000000000E+01,      /* J = 47 */
(PID.TID 0028.0001)                -7.812500000000000E+01,      /* J = 48 */
(PID.TID 0028.0001)      . . .
(PID.TID 0028.0001)                -6.812500000000000E+01,      /* J = 88 */
(PID.TID 0028.0001)                -6.787500000000000E+01,      /* J = 89 */
(PID.TID 0028.0001)                -6.762500000000000E+01,      /* J = 90 */
(PID.TID 0028.0001)                -6.737500000000000E+01,      /* J = 91 */
(PID.TID 0028.0001)                -6.712500000000000E+01,      /* J = 92 */
(PID.TID 0028.0001)                -6.687500000000000E+01,      /* J = 93 */
(PID.TID 0028.0001)      . . .
(PID.TID 0028.0001)                -5.687500000000000E+01,      /* J =133 */
(PID.TID 0028.0001)                -5.662500000000000E+01,      /* J =134 */
(PID.TID 0028.0001)                -5.637500000000000E+01,      /* J =135 */
(PID.TID 0028.0001)                -5.612500000000000E+01,      /* J =136 */
(PID.TID 0028.0001)                -5.587500000000000E+01,      /* J =137 */
(PID.TID 0028.0001)                -5.562500000000000E+01,      /* J =138 */
(PID.TID 0028.0001)      . . .
(PID.TID 0028.0001)                -4.562500000000000E+01,      /* J =178 */
(PID.TID 0028.0001)                -4.537500000000000E+01,      /* J =179 */
(PID.TID 0028.0001)                -4.512500000000000E+01       /* J =180 */
(PID.TID 0028.0001)     ;
(PID.TID 0028.0001) rcoord = /* P-point R coordinate (  units of r ) */
(PID.TID 0028.0001)                -2.000000000000000E+03       /* K =  1 */
(PID.TID 0028.0001)     ;
(PID.TID 0028.0001) rF =   /* W-Interf. R coordinate (  units of r ) */
(PID.TID 0028.0001)                 0.000000000000000E+00,      /* K =  1 */
(PID.TID 0028.0001)                -4.000000000000000E+03       /* K =  2 */
(PID.TID 0028.0001)     ;
(PID.TID 0028.0001) deepFacC = /* deep-model grid factor @ cell-Center (-) */
(PID.TID 0028.0001)                 1.000000000000000E+00       /* K =  1 */
(PID.TID 0028.0001)     ;
(PID.TID 0028.0001) deepFacF = /* deep-model grid factor @ W-Interface (-) */
(PID.TID 0028.0001)     2 @  1.000000000000000E+00              /* K =  1:  2 */
(PID.TID 0028.0001)     ;
(PID.TID 0028.0001) rotateGrid = /* use rotated grid ( True/False ) */
(PID.TID 0028.0001)                   F
(PID.TID 0028.0001)     ;
(PID.TID 0028.0001) phiEuler = /* Euler angle, rotation about original z-coordinate [rad] */
(PID.TID 0028.0001)                 0.000000000000000E+00
(PID.TID 0028.0001)     ;
(PID.TID 0028.0001) thetaEuler = /* Euler angle, rotation about new x-coordinate [rad] */
(PID.TID 0028.0001)                 0.000000000000000E+00
(PID.TID 0028.0001)     ;
(PID.TID 0028.0001) psiEuler = /* Euler angle, rotation about new z-coordinate [rad] */
(PID.TID 0028.0001)                 0.000000000000000E+00
(PID.TID 0028.0001)     ;
(PID.TID 0028.0001) dxF =  /* dxF(:,1,:,1) ( units: m ) */
(PID.TID 0028.0001)   120 @  6.064737631061224E+01              /* I =  1:120 */
(PID.TID 0028.0001)     ;
(PID.TID 0028.0001) dxF =  /* dxF(1,:,1,:) ( units: m ) */
(PID.TID 0028.0001)                 6.064737631061224E+01,      /* J =  1 */
(PID.TID 0028.0001)                 1.819409742932220E+02,      /* J =  2 */
(PID.TID 0028.0001)                 3.032311083819374E+02,      /* J =  3 */
(PID.TID 0028.0001)      . . .
(PID.TID 0028.0001)                 5.125536246688524E+03,      /* J = 43 */
(PID.TID 0028.0001)                 5.244702324643266E+03,      /* J = 44 */
(PID.TID 0028.0001)                 5.363768551025823E+03,      /* J = 45 */
(PID.TID 0028.0001)                 5.482732658986874E+03,      /* J = 46 */
(PID.TID 0028.0001)                 5.601592383621292E+03,      /* J = 47 */
(PID.TID 0028.0001)                 5.720345462011242E+03,      /* J = 48 */
(PID.TID 0028.0001)      . . .
(PID.TID 0028.0001)                 1.035733211823259E+04,      /* J = 88 */
(PID.TID 0028.0001)                 1.046979465450666E+04,      /* J = 89 */
(PID.TID 0028.0001)                 1.058205786098240E+04,      /* J = 90 */
(PID.TID 0028.0001)                 1.069411960033017E+04,      /* J = 91 */
(PID.TID 0028.0001)                 1.080597773905600E+04,      /* J = 92 */
(PID.TID 0028.0001)                 1.091763014754215E+04,      /* J = 93 */
(PID.TID 0028.0001)      . . .
(PID.TID 0028.0001)                 1.519110152493174E+04,      /* J =133 */
(PID.TID 0028.0001)                 1.529253864732585E+04,      /* J =134 */
(PID.TID 0028.0001)                 1.539368462182784E+04,      /* J =135 */
(PID.TID 0028.0001)                 1.549453752276414E+04,      /* J =136 */
(PID.TID 0028.0001)                 1.559509543004091E+04,      /* J =137 */
(PID.TID 0028.0001)                 1.569535642918054E+04,      /* J =138 */
(PID.TID 0028.0001)      . . .
(PID.TID 0028.0001)                 1.944108541929565E+04,      /* J =178 */
(PID.TID 0028.0001)                 1.952759895608278E+04,      /* J =179 */
(PID.TID 0028.0001)                 1.961374071553422E+04       /* J =180 */
(PID.TID 0028.0001)     ;
(PID.TID 0028.0001) dyF =  /* dyF(:,1,:,1) ( units: m ) */
(PID.TID 0028.0001)   120 @  2.779873166113969E+04              /* I =  1:120 */
(PID.TID 0028.0001)     ;
(PID.TID 0028.0001) dyF =  /* dyF(1,:,1,:) ( units: m ) */
(PID.TID 0028.0001)   180 @  2.779873166113969E+04              /* J =  1:180 */
(PID.TID 0028.0001)     ;
(PID.TID 0028.0001) dxG =  /* dxG(:,1,:,1) ( units: m ) */
(PID.TID 0028.0001)   120 @  0.000000000000000E+00              /* I =  1:120 */
(PID.TID 0028.0001)     ;
(PID.TID 0028.0001) dxG =  /* dxG(1,:,1,:) ( units: m ) */
(PID.TID 0028.0001)                 0.000000000000000E+00,      /* J =  1 */
(PID.TID 0028.0001)                 1.212944639612296E+02,      /* J =  2 */
(PID.TID 0028.0001)                 2.425866186507058E+02,      /* J =  3 */
(PID.TID 0028.0001)      . . .
(PID.TID 0028.0001)                 5.065916472282987E+03,      /* J = 43 */
(PID.TID 0028.0001)                 5.185131625359569E+03,      /* J = 44 */
(PID.TID 0028.0001)                 5.304248061004215E+03,      /* J = 45 */
(PID.TID 0028.0001)                 5.423263511411683E+03,      /* J = 46 */
(PID.TID 0028.0001)                 5.542175710699359E+03,      /* J = 47 */
(PID.TID 0028.0001)                 5.660982394950379E+03,      /* J = 48 */
(PID.TID 0028.0001)      . . .
(PID.TID 0028.0001)                 1.030102677037547E+04,      /* J = 88 */
(PID.TID 0028.0001)                 1.041358816886259E+04,      /* J = 89 */
(PID.TID 0028.0001)                 1.052595130764185E+04,      /* J = 90 */
(PID.TID 0028.0001)                 1.063811404748103E+04,      /* J = 91 */
(PID.TID 0028.0001)                 1.075007425296326E+04,      /* J = 92 */
(PID.TID 0028.0001)                 1.086182979252761E+04,      /* J = 93 */
(PID.TID 0028.0001)      . . .
(PID.TID 0028.0001)                 1.514027438656480E+04,      /* J =133 */
(PID.TID 0028.0001)                 1.524185635904376E+04,      /* J =134 */
(PID.TID 0028.0001)                 1.534314814854830E+04,      /* J =135 */
(PID.TID 0028.0001)                 1.544414782662877E+04,      /* J =136 */
(PID.TID 0028.0001)                 1.554485347039688E+04,      /* J =137 */
(PID.TID 0028.0001)                 1.564526316256234E+04,      /* J =138 */
(PID.TID 0028.0001)      . . .
(PID.TID 0028.0001)                 1.939768974884213E+04,      /* J =178 */
(PID.TID 0028.0001)                 1.948438855707839E+04,      /* J =179 */
(PID.TID 0028.0001)                 1.957071641064266E+04       /* J =180 */
(PID.TID 0028.0001)     ;
(PID.TID 0028.0001) dyG =  /* dyG(:,1,:,1) ( units: m ) */
(PID.TID 0028.0001)   120 @  2.779873166113969E+04              /* I =  1:120 */
(PID.TID 0028.0001)     ;
(PID.TID 0028.0001) dyG =  /* dyG(1,:,1,:) ( units: m ) */
(PID.TID 0028.0001)   180 @  2.779873166113969E+04              /* J =  1:180 */
(PID.TID 0028.0001)     ;
(PID.TID 0028.0001) dxC =  /* dxC(:,1,:,1) ( units: m ) */
(PID.TID 0028.0001)   120 @  6.064737631061224E+01              /* I =  1:120 */
(PID.TID 0028.0001)     ;
(PID.TID 0028.0001) dxC =  /* dxC(1,:,1,:) ( units: m ) */
(PID.TID 0028.0001)                 6.064737631061224E+01,      /* J =  1 */
(PID.TID 0028.0001)                 1.819409742932220E+02,      /* J =  2 */
(PID.TID 0028.0001)                 3.032311083819374E+02,      /* J =  3 */
(PID.TID 0028.0001)      . . .
(PID.TID 0028.0001)                 5.125536246688524E+03,      /* J = 43 */
(PID.TID 0028.0001)                 5.244702324643266E+03,      /* J = 44 */
(PID.TID 0028.0001)                 5.363768551025823E+03,      /* J = 45 */
(PID.TID 0028.0001)                 5.482732658986874E+03,      /* J = 46 */
(PID.TID 0028.0001)                 5.601592383621292E+03,      /* J = 47 */
(PID.TID 0028.0001)                 5.720345462011242E+03,      /* J = 48 */
(PID.TID 0028.0001)      . . .
(PID.TID 0028.0001)                 1.035733211823259E+04,      /* J = 88 */
(PID.TID 0028.0001)                 1.046979465450666E+04,      /* J = 89 */
(PID.TID 0028.0001)                 1.058205786098240E+04,      /* J = 90 */
(PID.TID 0028.0001)                 1.069411960033017E+04,      /* J = 91 */
(PID.TID 0028.0001)                 1.080597773905600E+04,      /* J = 92 */
(PID.TID 0028.0001)                 1.091763014754215E+04,      /* J = 93 */
(PID.TID 0028.0001)      . . .
(PID.TID 0028.0001)                 1.519110152493174E+04,      /* J =133 */
(PID.TID 0028.0001)                 1.529253864732585E+04,      /* J =134 */
(PID.TID 0028.0001)                 1.539368462182784E+04,      /* J =135 */
(PID.TID 0028.0001)                 1.549453752276414E+04,      /* J =136 */
(PID.TID 0028.0001)                 1.559509543004091E+04,      /* J =137 */
(PID.TID 0028.0001)                 1.569535642918054E+04,      /* J =138 */
(PID.TID 0028.0001)      . . .
(PID.TID 0028.0001)                 1.944108541929565E+04,      /* J =178 */
(PID.TID 0028.0001)                 1.952759895608278E+04,      /* J =179 */
(PID.TID 0028.0001)                 1.961374071553422E+04       /* J =180 */
(PID.TID 0028.0001)     ;
(PID.TID 0028.0001) dyC =  /* dyC(:,1,:,1) ( units: m ) */
(PID.TID 0028.0001)   120 @  2.779873166113969E+04              /* I =  1:120 */
(PID.TID 0028.0001)     ;
(PID.TID 0028.0001) dyC =  /* dyC(1,:,1,:) ( units: m ) */
(PID.TID 0028.0001)   180 @  2.779873166113969E+04              /* J =  1:180 */
(PID.TID 0028.0001)     ;
(PID.TID 0028.0001) dxV =  /* dxV(:,1,:,1) ( units: m ) */
(PID.TID 0028.0001)   120 @  0.000000000000000E+00              /* I =  1:120 */
(PID.TID 0028.0001)     ;
(PID.TID 0028.0001) dxV =  /* dxV(1,:,1,:) ( units: m ) */
(PID.TID 0028.0001)                 0.000000000000000E+00,      /* J =  1 */
(PID.TID 0028.0001)                 1.212944639612296E+02,      /* J =  2 */
(PID.TID 0028.0001)                 2.425866186507058E+02,      /* J =  3 */
(PID.TID 0028.0001)      . . .
(PID.TID 0028.0001)                 5.065916472282987E+03,      /* J = 43 */
(PID.TID 0028.0001)                 5.185131625359569E+03,      /* J = 44 */
(PID.TID 0028.0001)                 5.304248061004215E+03,      /* J = 45 */
(PID.TID 0028.0001)                 5.423263511411683E+03,      /* J = 46 */
(PID.TID 0028.0001)                 5.542175710699359E+03,      /* J = 47 */
(PID.TID 0028.0001)                 5.660982394950379E+03,      /* J = 48 */
(PID.TID 0028.0001)      . . .
(PID.TID 0028.0001)                 1.030102677037547E+04,      /* J = 88 */
(PID.TID 0028.0001)                 1.041358816886259E+04,      /* J = 89 */
(PID.TID 0028.0001)                 1.052595130764185E+04,      /* J = 90 */
(PID.TID 0028.0001)                 1.063811404748103E+04,      /* J = 91 */
(PID.TID 0028.0001)                 1.075007425296326E+04,      /* J = 92 */
(PID.TID 0028.0001)                 1.086182979252761E+04,      /* J = 93 */
(PID.TID 0028.0001)      . . .
(PID.TID 0028.0001)                 1.514027438656480E+04,      /* J =133 */
(PID.TID 0028.0001)                 1.524185635904376E+04,      /* J =134 */
(PID.TID 0028.0001)                 1.534314814854830E+04,      /* J =135 */
(PID.TID 0028.0001)                 1.544414782662877E+04,      /* J =136 */
(PID.TID 0028.0001)                 1.554485347039688E+04,      /* J =137 */
(PID.TID 0028.0001)                 1.564526316256234E+04,      /* J =138 */
(PID.TID 0028.0001)      . . .
(PID.TID 0028.0001)                 1.939768974884213E+04,      /* J =178 */
(PID.TID 0028.0001)                 1.948438855707839E+04,      /* J =179 */
(PID.TID 0028.0001)                 1.957071641064266E+04       /* J =180 */
(PID.TID 0028.0001)     ;
(PID.TID 0028.0001) dyU =  /* dyU(:,1,:,1) ( units: m ) */
(PID.TID 0028.0001)   120 @  2.779873166113969E+04              /* I =  1:120 */
(PID.TID 0028.0001)     ;
(PID.TID 0028.0001) dyU =  /* dyU(1,:,1,:) ( units: m ) */
(PID.TID 0028.0001)   180 @  2.779873166113969E+04              /* J =  1:180 */
(PID.TID 0028.0001)     ;
(PID.TID 0028.0001) rA  =  /* rA (:,1,:,1) ( units: m^2 ) */
(PID.TID 0028.0001)   120 @  1.685918802613084E+06              /* I =  1:120 */
(PID.TID 0028.0001)     ;
(PID.TID 0028.0001) rA  =  /* rA (1,:,1,:) ( units: m^2 ) */
(PID.TID 0028.0001)                 1.685918802613084E+06,      /* J =  1 */
(PID.TID 0028.0001)                 5.057724310374355E+06,      /* J =  2 */
(PID.TID 0028.0001)                 8.429433526370142E+06,      /* J =  3 */
(PID.TID 0028.0001)      . . .
(PID.TID 0028.0001)                 1.424832937127040E+08,      /* J = 43 */
(PID.TID 0028.0001)                 1.457959569090365E+08,      /* J = 44 */
(PID.TID 0028.0001)                 1.491058443604997E+08,      /* J = 45 */
(PID.TID 0028.0001)                 1.524128930516104E+08,      /* J = 46 */
(PID.TID 0028.0001)                 1.557170400209377E+08,      /* J = 47 */
(PID.TID 0028.0001)                 1.590182223623035E+08,      /* J = 48 */
(PID.TID 0028.0001)      . . .
(PID.TID 0028.0001)                 2.879204678799468E+08,      /* J = 88 */
(PID.TID 0028.0001)                 2.910467812677407E+08,      /* J = 89 */
(PID.TID 0028.0001)                 2.941675535443509E+08,      /* J = 90 */
(PID.TID 0028.0001)                 2.972827252947675E+08,      /* J = 91 */
(PID.TID 0028.0001)                 3.003922372106116E+08,      /* J = 92 */
(PID.TID 0028.0001)                 3.034960300913147E+08,      /* J = 93 */
(PID.TID 0028.0001)      . . .
(PID.TID 0028.0001)                 4.222930199342380E+08,      /* J =133 */
(PID.TID 0028.0001)                 4.251128410432271E+08,      /* J =134 */
(PID.TID 0028.0001)                 4.279245686165602E+08,      /* J =135 */
(PID.TID 0028.0001)                 4.307281491229125E+08,      /* J =136 */
(PID.TID 0028.0001)                 4.335235291862153E+08,      /* J =137 */
(PID.TID 0028.0001)                 4.363106555864043E+08,      /* J =138 */
(PID.TID 0028.0001)      . . .
(PID.TID 0028.0001)                 5.404370880570821E+08,      /* J =178 */
(PID.TID 0028.0001)                 5.428420527434746E+08,      /* J =179 */
(PID.TID 0028.0001)                 5.452366824997098E+08       /* J =180 */
(PID.TID 0028.0001)     ;
(PID.TID 0028.0001) rAw =  /* rAw(:,1,:,1) ( units: m^2 ) */
(PID.TID 0028.0001)   120 @  1.685918802613084E+06              /* I =  1:120 */
(PID.TID 0028.0001)     ;
(PID.TID 0028.0001) rAw =  /* rAw(1,:,1,:) ( units: m^2 ) */
(PID.TID 0028.0001)                 1.685918802613084E+06,      /* J =  1 */
(PID.TID 0028.0001)                 5.057724310374355E+06,      /* J =  2 */
(PID.TID 0028.0001)                 8.429433526370142E+06,      /* J =  3 */
(PID.TID 0028.0001)      . . .
(PID.TID 0028.0001)                 1.424832937127040E+08,      /* J = 43 */
(PID.TID 0028.0001)                 1.457959569090365E+08,      /* J = 44 */
(PID.TID 0028.0001)                 1.491058443604997E+08,      /* J = 45 */
(PID.TID 0028.0001)                 1.524128930516104E+08,      /* J = 46 */
(PID.TID 0028.0001)                 1.557170400209377E+08,      /* J = 47 */
(PID.TID 0028.0001)                 1.590182223623035E+08,      /* J = 48 */
(PID.TID 0028.0001)      . . .
(PID.TID 0028.0001)                 2.879204678799468E+08,      /* J = 88 */
(PID.TID 0028.0001)                 2.910467812677407E+08,      /* J = 89 */
(PID.TID 0028.0001)                 2.941675535443509E+08,      /* J = 90 */
(PID.TID 0028.0001)                 2.972827252947675E+08,      /* J = 91 */
(PID.TID 0028.0001)                 3.003922372106116E+08,      /* J = 92 */
(PID.TID 0028.0001)                 3.034960300913147E+08,      /* J = 93 */
(PID.TID 0028.0001)      . . .
[...]
 diag_cg2d (it=     5760) a2dNorm,x2dNorm= 5.454150E-07 , 1.000000E+00 ; Criter= 1.00E-10
 diag_cg2d : k=   1 , it=     0     0 ; ini,min,last_Res= 0.0000000E+00 0.0000000E+00 0.0000000E+00
  get Post-Proc. Diag #     50  PsiVEL   from previous computation of Diag #     49
 Computing Diagnostic #    30 "UVEL    " (list#  2) Parms "UUR     MR      ", Count=       1
             Vector  Mate for "UVEL    " :  Diagnostic #     31 "VVEL    " exists
 Computing Diagnostic #    31 "VVEL    " (list#  2) Parms "VVR     MR      ", Count=       1
             Vector  Mate for "VVEL    " :  Diagnostic #     30 "UVEL    " exists
 Computing Diagnostic #    23 "ETAN    " (list#  2) Parms "SM      M1      ", Count=       1
 Computing Diagnostic #    24 "ETANSQ  " (list#  2) Parms "SM P    M1      ", Count=       1
 Compute Stats, Diag. #    23 "ETAN    " (list#  1) Parms "SM      M1      ", vol(  0 )= 5.101E+14
 Compute Stats, Diag. #    24 "ETANSQ  " (list#  1) Parms "SM P    M1      ", vol(  0 )= 5.101E+14
 Compute Stats, Diag. #    36 "UVELSQ  " (list#  1) Parms "UURP    MR      ", vol(  0 )= 2.040E+18
 Compute Stats, Diag. #    37 "VVELSQ  " (list#  1) Parms "VVRP    MR      ", vol(  0 )= 2.040E+18
 Computing Diagnostic #    48 "WVELMASS" (list#  1) Parms "WM      LR      ", Count=       1
 Post-Processing Diag #    49 "PhiVEL  " (list#  1) Parms "SMR P   MR      "
   from diag: UVELMASS (#    46) Cnt=       1 and diag: VVELMASS (#    47) Cnt=       1
 diag_cg2d (it=     7200) a2dNorm,x2dNorm= 5.454150E-07 , 1.000000E+00 ; Criter= 1.00E-10
 diag_cg2d : k=   1 , it=     0     0 ; ini,min,last_Res= 0.0000000E+00 0.0000000E+00 0.0000000E+00
  get Post-Proc. Diag #     50  PsiVEL   from previous computation of Diag #     49
 Computing Diagnostic #    30 "UVEL    " (list#  2) Parms "UUR     MR      ", Count=       1
             Vector  Mate for "UVEL    " :  Diagnostic #     31 "VVEL    " exists
 Computing Diagnostic #    31 "VVEL    " (list#  2) Parms "VVR     MR      ", Count=       1
             Vector  Mate for "VVEL    " :  Diagnostic #     30 "UVEL    " exists
 Computing Diagnostic #    23 "ETAN    " (list#  2) Parms "SM      M1      ", Count=       1
 Computing Diagnostic #    24 "ETANSQ  " (list#  2) Parms "SM P    M1      ", Count=       1
 Compute Stats, Diag. #    23 "ETAN    " (list#  1) Parms "SM      M1      ", vol(  0 )= 5.101E+14
 Compute Stats, Diag. #    24 "ETANSQ  " (list#  1) Parms "SM P    M1      ", vol(  0 )= 5.101E+14
 Compute Stats, Diag. #    36 "UVELSQ  " (list#  1) Parms "UURP    MR      ", vol(  0 )= 2.040E+18
 Compute Stats, Diag. #    37 "VVELSQ  " (list#  1) Parms "VVRP    MR      ", vol(  0 )= 2.040E+18
 Computing Diagnostic #    48 "WVELMASS" (list#  1) Parms "WM      LR      ", Count=       1
 Post-Processing Diag #    49 "PhiVEL  " (list#  1) Parms "SMR P   MR      "
   from diag: UVELMASS (#    46) Cnt=       1 and diag: VVELMASS (#    47) Cnt=       1
 diag_cg2d (it=     8640) a2dNorm,x2dNorm= 5.454150E-07 , 1.000000E+00 ; Criter= 1.00E-10
 diag_cg2d : k=   1 , it=     0     0 ; ini,min,last_Res= 0.0000000E+00 0.0000000E+00 0.0000000E+00
  get Post-Proc. Diag #     50  PsiVEL   from previous computation of Diag #     49
 Computing Diagnostic #    30 "UVEL    " (list#  2) Parms "UUR     MR      ", Count=       1
             Vector  Mate for "UVEL    " :  Diagnostic #     31 "VVEL    " exists
 Computing Diagnostic #    31 "VVEL    " (list#  2) Parms "VVR     MR      ", Count=       1
             Vector  Mate for "VVEL    " :  Diagnostic #     30 "UVEL    " exists
 Computing Diagnostic #    23 "ETAN    " (list#  2) Parms "SM      M1      ", Count=       1
 Computing Diagnostic #    24 "ETANSQ  " (list#  2) Parms "SM P    M1      ", Count=       1
 Compute Stats, Diag. #    23 "ETAN    " (list#  1) Parms "SM      M1      ", vol(  0 )= 5.101E+14
 Compute Stats, Diag. #    24 "ETANSQ  " (list#  1) Parms "SM P    M1      ", vol(  0 )= 5.101E+14
 Compute Stats, Diag. #    36 "UVELSQ  " (list#  1) Parms "UURP    MR      ", vol(  0 )= 2.040E+18
 Compute Stats, Diag. #    37 "VVELSQ  " (list#  1) Parms "VVRP    MR      ", vol(  0 )= 2.040E+18
 Computing Diagnostic #    48 "WVELMASS" (list#  1) Parms "WM      LR      ", Count=       1
 Post-Processing Diag #    49 "PhiVEL  " (list#  1) Parms "SMR P   MR      "
   from diag: UVELMASS (#    46) Cnt=       1 and diag: VVELMASS (#    47) Cnt=       1
 diag_cg2d (it=    10080) a2dNorm,x2dNorm= 5.454150E-07 , 1.000000E+00 ; Criter= 1.00E-10
 diag_cg2d : k=   1 , it=     0     0 ; ini,min,last_Res= 0.0000000E+00 0.0000000E+00 0.0000000E+00
  get Post-Proc. Diag #     50  PsiVEL   from previous computation of Diag #     49
 Computing Diagnostic #    30 "UVEL    " (list#  2) Parms "UUR     MR      ", Count=       1
             Vector  Mate for "UVEL    " :  Diagnostic #     31 "VVEL    " exists
 Computing Diagnostic #    31 "VVEL    " (list#  2) Parms "VVR     MR      ", Count=       1
             Vector  Mate for "VVEL    " :  Diagnostic #     30 "UVEL    " exists
 Computing Diagnostic #    23 "ETAN    " (list#  2) Parms "SM      M1      ", Count=       1
 Computing Diagnostic #    24 "ETANSQ  " (list#  2) Parms "SM P    M1      ", Count=       1
 Compute Stats, Diag. #    23 "ETAN    " (list#  1) Parms "SM      M1      ", vol(  0 )= 5.101E+14
 Compute Stats, Diag. #    24 "ETANSQ  " (list#  1) Parms "SM P    M1      ", vol(  0 )= 5.101E+14
 Compute Stats, Diag. #    36 "UVELSQ  " (list#  1) Parms "UURP    MR      ", vol(  0 )= 2.040E+18
 Compute Stats, Diag. #    37 "VVELSQ  " (list#  1) Parms "VVRP    MR      ", vol(  0 )= 2.040E+18
 Computing Diagnostic #    48 "WVELMASS" (list#  1) Parms "WM      LR      ", Count=       1
 Post-Processing Diag #    49 "PhiVEL  " (list#  1) Parms "SMR P   MR      "
   from diag: UVELMASS (#    46) Cnt=       1 and diag: VVELMASS (#    47) Cnt=       1
 diag_cg2d (it=    11520) a2dNorm,x2dNorm= 5.454150E-07 , 1.000000E+00 ; Criter= 1.00E-10
 diag_cg2d : k=   1 , it=     0     0 ; ini,min,last_Res= 0.0000000E+00 0.0000000E+00 0.0000000E+00
  get Post-Proc. Diag #     50  PsiVEL   from previous computation of Diag #     49
 Computing Diagnostic #    30 "UVEL    " (list#  2) Parms "UUR     MR      ", Count=       1
             Vector  Mate for "UVEL    " :  Diagnostic #     31 "VVEL    " exists
 Computing Diagnostic #    31 "VVEL    " (list#  2) Parms "VVR     MR      ", Count=       1
             Vector  Mate for "VVEL    " :  Diagnostic #     30 "UVEL    " exists
 Computing Diagnostic #    23 "ETAN    " (list#  2) Parms "SM      M1      ", Count=       1
 Computing Diagnostic #    24 "ETANSQ  " (list#  2) Parms "SM P    M1      ", Count=       1
 Compute Stats, Diag. #    23 "ETAN    " (list#  1) Parms "SM      M1      ", vol(  0 )= 5.101E+14
 Compute Stats, Diag. #    24 "ETANSQ  " (list#  1) Parms "SM P    M1      ", vol(  0 )= 5.101E+14
 Compute Stats, Diag. #    36 "UVELSQ  " (list#  1) Parms "UURP    MR      ", vol(  0 )= 2.040E+18
 Compute Stats, Diag. #    37 "VVELSQ  " (list#  1) Parms "VVRP    MR      ", vol(  0 )= 2.040E+18
 Computing Diagnostic #    48 "WVELMASS" (list#  1) Parms "WM      LR      ", Count=       1
 Post-Processing Diag #    49 "PhiVEL  " (list#  1) Parms "SMR P   MR      "
   from diag: UVELMASS (#    46) Cnt=       1 and diag: VVELMASS (#    47) Cnt=       1
 diag_cg2d (it=    12960) a2dNorm,x2dNorm= 5.454150E-07 , 1.000000E+00 ; Criter= 1.00E-10
 diag_cg2d : k=   1 , it=     0     0 ; ini,min,last_Res= 0.0000000E+00 0.0000000E+00 0.0000000E+00
  get Post-Proc. Diag #     50  PsiVEL   from previous computation of Diag #     49
 Computing Diagnostic #    30 "UVEL    " (list#  2) Parms "UUR     MR      ", Count=       1
             Vector  Mate for "UVEL    " :  Diagnostic #     31 "VVEL    " exists
 Computing Diagnostic #    31 "VVEL    " (list#  2) Parms "VVR     MR      ", Count=       1
             Vector  Mate for "VVEL    " :  Diagnostic #     30 "UVEL    " exists
 Computing Diagnostic #    23 "ETAN    " (list#  2) Parms "SM      M1      ", Count=       1
 Computing Diagnostic #    24 "ETANSQ  " (list#  2) Parms "SM P    M1      ", Count=       1
 Compute Stats, Diag. #    23 "ETAN    " (list#  1) Parms "SM      M1      ", vol(  0 )= 5.101E+14
 Compute Stats, Diag. #    24 "ETANSQ  " (list#  1) Parms "SM P    M1      ", vol(  0 )= 5.101E+14
 Compute Stats, Diag. #    36 "UVELSQ  " (list#  1) Parms "UURP    MR      ", vol(  0 )= 2.040E+18
 Compute Stats, Diag. #    37 "VVELSQ  " (list#  1) Parms "VVRP    MR      ", vol(  0 )= 2.040E+18
 Computing Diagnostic #    48 "WVELMASS" (list#  1) Parms "WM      LR      ", Count=       1
 Post-Processing Diag #    49 "PhiVEL  " (list#  1) Parms "SMR P   MR      "
   from diag: UVELMASS (#    46) Cnt=       1 and diag: VVELMASS (#    47) Cnt=       1
 diag_cg2d (it=    14400) a2dNorm,x2dNorm= 5.454150E-07 , 1.000000E+00 ; Criter= 1.00E-10
 diag_cg2d : k=   1 , it=     0     0 ; ini,min,last_Res= 0.0000000E+00 0.0000000E+00 0.0000000E+00
  get Post-Proc. Diag #     50  PsiVEL   from previous computation of Diag #     49
 Computing Diagnostic #    30 "UVEL    " (list#  2) Parms "UUR     MR      ", Count=       1
             Vector  Mate for "UVEL    " :  Diagnostic #     31 "VVEL    " exists
 Computing Diagnostic #    31 "VVEL    " (list#  2) Parms "VVR     MR      ", Count=       1
             Vector  Mate for "VVEL    " :  Diagnostic #     30 "UVEL    " exists
 Computing Diagnostic #    23 "ETAN    " (list#  2) Parms "SM      M1      ", Count=       1
 Computing Diagnostic #    24 "ETANSQ  " (list#  2) Parms "SM P    M1      ", Count=       1
 Compute Stats, Diag. #    23 "ETAN    " (list#  1) Parms "SM      M1      ", vol(  0 )= 5.101E+14
 Compute Stats, Diag. #    24 "ETANSQ  " (list#  1) Parms "SM P    M1      ", vol(  0 )= 5.101E+14
 Compute Stats, Diag. #    36 "UVELSQ  " (list#  1) Parms "UURP    MR      ", vol(  0 )= 2.040E+18
 Compute Stats, Diag. #    37 "VVELSQ  " (list#  1) Parms "VVRP    MR      ", vol(  0 )= 2.040E+18
 Computing Diagnostic #    48 "WVELMASS" (list#  1) Parms "WM      LR      ", Count=       1
 Post-Processing Diag #    49 "PhiVEL  " (list#  1) Parms "SMR P   MR      "
   from diag: UVELMASS (#    46) Cnt=       1 and diag: VVELMASS (#    47) Cnt=       1
 diag_cg2d (it=    15840) a2dNorm,x2dNorm= 5.454150E-07 , 1.000000E+00 ; Criter= 1.00E-10
 diag_cg2d : k=   1 , it=     0     0 ; ini,min,last_Res= 0.0000000E+00 0.0000000E+00 0.0000000E+00
  get Post-Proc. Diag #     50  PsiVEL   from previous computation of Diag #     49
 Computing Diagnostic #    30 "UVEL    " (list#  2) Parms "UUR     MR      ", Count=       1
             Vector  Mate for "UVEL    " :  Diagnostic #     31 "VVEL    " exists
 Computing Diagnostic #    31 "VVEL    " (list#  2) Parms "VVR     MR      ", Count=       1
             Vector  Mate for "VVEL    " :  Diagnostic #     30 "UVEL    " exists
 Computing Diagnostic #    23 "ETAN    " (list#  2) Parms "SM      M1      ", Count=       1
 Computing Diagnostic #    24 "ETANSQ  " (list#  2) Parms "SM P    M1      ", Count=       1
 Compute Stats, Diag. #    23 "ETAN    " (list#  1) Parms "SM      M1      ", vol(  0 )= 5.101E+14
 Compute Stats, Diag. #    24 "ETANSQ  " (list#  1) Parms "SM P    M1      ", vol(  0 )= 5.101E+14
 Compute Stats, Diag. #    36 "UVELSQ  " (list#  1) Parms "UURP    MR      ", vol(  0 )= 2.040E+18
 Compute Stats, Diag. #    37 "VVELSQ  " (list#  1) Parms "VVRP    MR      ", vol(  0 )= 2.040E+18
(PID.TID 0028.0001) %CHECKPOINT     17280 ckptA
(PID.TID 0028.0001)   Seconds in section "ALL                    [THE_MODEL_MAIN]":
(PID.TID 0028.0001)           User time:   134.67722797393799
(PID.TID 0028.0001)         System time:  0.85677909851074219
(PID.TID 0028.0001)     Wall clock time:   135.06773304939270
(PID.TID 0028.0001)          No. starts:           1
(PID.TID 0028.0001)           No. stops:           1
(PID.TID 0028.0001)   Seconds in section "INITIALISE_FIXED       [THE_MODEL_MAIN]":
(PID.TID 0028.0001)           User time:   4.9558540582656860
(PID.TID 0028.0001)         System time:   0.0000000000000000
(PID.TID 0028.0001)     Wall clock time:   5.8951108455657959
(PID.TID 0028.0001)          No. starts:           1
(PID.TID 0028.0001)           No. stops:           1
(PID.TID 0028.0001)   Seconds in section "THE_MAIN_LOOP          [THE_MODEL_MAIN]":
(PID.TID 0028.0001)           User time:   129.72133159637451
(PID.TID 0028.0001)         System time:  0.85675191879272461
(PID.TID 0028.0001)     Wall clock time:   129.17257285118103
(PID.TID 0028.0001)          No. starts:           1
(PID.TID 0028.0001)           No. stops:           1
(PID.TID 0028.0001)   Seconds in section "INITIALISE_VARIA    [THE_MAIN_LOOP]":
(PID.TID 0028.0001)           User time:   1.4294133186340332
(PID.TID 0028.0001)         System time:   2.1518945693969727E-002
(PID.TID 0028.0001)     Wall clock time:   1.4985330104827881
(PID.TID 0028.0001)          No. starts:           1
(PID.TID 0028.0001)           No. stops:           1
(PID.TID 0028.0001)   Seconds in section "MAIN LOOP           [THE_MAIN_LOOP]":
(PID.TID 0028.0001)           User time:   128.29189157485962
(PID.TID 0028.0001)         System time:  0.83522891998291016
(PID.TID 0028.0001)     Wall clock time:   127.67400598526001
(PID.TID 0028.0001)          No. starts:           1
(PID.TID 0028.0001)           No. stops:           1
(PID.TID 0028.0001)   Seconds in section "MAIN_DO_LOOP        [THE_MAIN_LOOP]":
(PID.TID 0028.0001)           User time:   128.14381265640259
(PID.TID 0028.0001)         System time:  0.83146619796752930
(PID.TID 0028.0001)     Wall clock time:   127.52415871620178
(PID.TID 0028.0001)          No. starts:       17280
(PID.TID 0028.0001)           No. stops:       17280
(PID.TID 0028.0001)   Seconds in section "FORWARD_STEP        [MAIN_DO_LOOP]":
(PID.TID 0028.0001)           User time:   127.84702682495117
(PID.TID 0028.0001)         System time:  0.82411265373229980
(PID.TID 0028.0001)     Wall clock time:   127.22303438186646
(PID.TID 0028.0001)          No. starts:       17280
(PID.TID 0028.0001)           No. stops:       17280
(PID.TID 0028.0001)   Seconds in section "DO_STATEVARS_DIAGS  [FORWARD_STEP]":
(PID.TID 0028.0001)           User time:  0.40916824340820312
(PID.TID 0028.0001)         System time:   9.5574855804443359E-003
(PID.TID 0028.0001)     Wall clock time:  0.41486763954162598
(PID.TID 0028.0001)          No. starts:       34560
(PID.TID 0028.0001)           No. stops:       34560
(PID.TID 0028.0001)   Seconds in section "LOAD_FIELDS_DRIVER  [FORWARD_STEP]":
(PID.TID 0028.0001)           User time:   2.3098654747009277
(PID.TID 0028.0001)         System time:   5.1348447799682617E-002
(PID.TID 0028.0001)     Wall clock time:   2.3300120830535889
(PID.TID 0028.0001)          No. starts:       17280
(PID.TID 0028.0001)           No. stops:       17280
(PID.TID 0028.0001)   Seconds in section "EXTERNAL_FLDS_LOAD [LOAD_FLDS_DRIVER]":
(PID.TID 0028.0001)           User time:  0.15825796127319336
(PID.TID 0028.0001)         System time:   4.3926239013671875E-003
(PID.TID 0028.0001)     Wall clock time:  0.15353989601135254
(PID.TID 0028.0001)          No. starts:       17280
(PID.TID 0028.0001)           No. stops:       17280
(PID.TID 0028.0001)   Seconds in section "DO_ATMOSPHERIC_PHYS [FORWARD_STEP]":
(PID.TID 0028.0001)           User time:  0.14982748031616211
(PID.TID 0028.0001)         System time:   4.0528774261474609E-003
(PID.TID 0028.0001)     Wall clock time:  0.15191555023193359
(PID.TID 0028.0001)          No. starts:       17280
(PID.TID 0028.0001)           No. stops:       17280
(PID.TID 0028.0001)   Seconds in section "DO_OCEANIC_PHYS     [FORWARD_STEP]":
(PID.TID 0028.0001)           User time:   27.200834274291992
(PID.TID 0028.0001)         System time:  0.22013783454895020
(PID.TID 0028.0001)     Wall clock time:   27.111712217330933
(PID.TID 0028.0001)          No. starts:       17280
(PID.TID 0028.0001)           No. stops:       17280
(PID.TID 0028.0001)   Seconds in section "THERMODYNAMICS      [FORWARD_STEP]":
(PID.TID 0028.0001)           User time:  0.15236091613769531
(PID.TID 0028.0001)         System time:   3.0846595764160156E-003
(PID.TID 0028.0001)     Wall clock time:  0.15350294113159180
(PID.TID 0028.0001)          No. starts:       17280
(PID.TID 0028.0001)           No. stops:       17280
(PID.TID 0028.0001)   Seconds in section "INTEGR_CONTINUITY   [FORWARD_STEP]":
(PID.TID 0028.0001)           User time:   57.070213794708252
(PID.TID 0028.0001)         System time:  0.29093694686889648
(PID.TID 0028.0001)     Wall clock time:   56.735234975814819
(PID.TID 0028.0001)          No. starts:       17280
(PID.TID 0028.0001)           No. stops:       17280
(PID.TID 0028.0001)   Seconds in section "TRC_CORRECTION_STEP [FORWARD_STEP]":
(PID.TID 0028.0001)           User time:  0.15159368515014648
(PID.TID 0028.0001)         System time:   3.1342506408691406E-003
(PID.TID 0028.0001)     Wall clock time:  0.15274715423583984
(PID.TID 0028.0001)          No. starts:       17280
(PID.TID 0028.0001)           No. stops:       17280
(PID.TID 0028.0001)   Seconds in section "BLOCKING_EXCHANGES  [FORWARD_STEP]":
(PID.TID 0028.0001)           User time:   11.682900905609131
(PID.TID 0028.0001)         System time:  0.11247992515563965
(PID.TID 0028.0001)     Wall clock time:   11.680548667907715
(PID.TID 0028.0001)          No. starts:       17280
(PID.TID 0028.0001)           No. stops:       17280
(PID.TID 0028.0001)   Seconds in section "MONITOR             [FORWARD_STEP]":
(PID.TID 0028.0001)           User time:  0.21197414398193359
(PID.TID 0028.0001)         System time:   3.4780502319335938E-003
(PID.TID 0028.0001)     Wall clock time:  0.21365833282470703
(PID.TID 0028.0001)          No. starts:       17280
(PID.TID 0028.0001)           No. stops:       17280
(PID.TID 0028.0001)   Seconds in section "DO_THE_MODEL_IO     [FORWARD_STEP]":
(PID.TID 0028.0001)           User time:   25.158564567565918
(PID.TID 0028.0001)         System time:   7.0465326309204102E-002
(PID.TID 0028.0001)     Wall clock time:   25.062876939773560
(PID.TID 0028.0001)          No. starts:       17280
(PID.TID 0028.0001)           No. stops:       17280
(PID.TID 0028.0001)   Seconds in section "DO_WRITE_PICKUP     [FORWARD_STEP]":
(PID.TID 0028.0001)           User time:   1.2179870605468750
(PID.TID 0028.0001)         System time:   3.8850307464599609E-003
(PID.TID 0028.0001)     Wall clock time:   1.2014384269714355
(PID.TID 0028.0001)          No. starts:       17280
(PID.TID 0028.0001)           No. stops:       17280
(PID.TID 0028.0001) // ======================================================
(PID.TID 0028.0001) // Tile <-> Tile communication statistics
(PID.TID 0028.0001) // ======================================================
(PID.TID 0028.0001) // o Tile number: 000008
(PID.TID 0028.0001) //         No. X exchanges =              0
(PID.TID 0028.0001) //            Max. X spins =              0
(PID.TID 0028.0001) //            Min. X spins =     1000000000
(PID.TID 0028.0001) //          Total. X spins =              0
(PID.TID 0028.0001) //            Avg. X spins =       0.00E+00
(PID.TID 0028.0001) //         No. Y exchanges =              0
(PID.TID 0028.0001) //            Max. Y spins =              0
(PID.TID 0028.0001) //            Min. Y spins =     1000000000
(PID.TID 0028.0001) //          Total. Y spins =              0
(PID.TID 0028.0001) //            Avg. Y spins =       0.00E+00
(PID.TID 0028.0001) // o Thread number: 000001
(PID.TID 0028.0001) //            No. barriers =           2788
(PID.TID 0028.0001) //      Max. barrier spins =              1
(PID.TID 0028.0001) //      Min. barrier spins =              1
(PID.TID 0028.0001) //     Total barrier spins =           2788
(PID.TID 0028.0001) //      Avg. barrier spins =       1.00E+00
PROGRAM MAIN: Execution ended Normally
